 
data_RFH201_0m
 
_audit_creation_method            'SHELXL-2014/7'
_shelx_SHELXL_version_number      '2014/7'
_chemical_name_systematic         ?
_chemical_name_common             ?
_chemical_melting_point           ?
_chemical_formula_moiety          ?
_chemical_formula_sum
 'C19 H19 Cl N O4' 
_chemical_formula_weight          360.80

loop_
 _atom_type_symbol
 _atom_type_description
 _atom_type_scat_dispersion_real
 _atom_type_scat_dispersion_imag
 _atom_type_scat_source
 'C'  'C'   0.0033   0.0016
 'International Tables Vol C Tables 4.2.6.8 and 6.1.1.4'
 'H'  'H'   0.0000   0.0000
 'International Tables Vol C Tables 4.2.6.8 and 6.1.1.4'
 'N'  'N'   0.0061   0.0033
 'International Tables Vol C Tables 4.2.6.8 and 6.1.1.4'
 'O'  'O'   0.0106   0.0060
 'International Tables Vol C Tables 4.2.6.8 and 6.1.1.4'
 'Cl'  'Cl'   0.1484   0.1585
 'International Tables Vol C Tables 4.2.6.8 and 6.1.1.4'
 
_space_group_crystal_system       triclinic
_space_group_IT_number            2
_space_group_name_H-M_alt         'P -1'
_space_group_name_Hall            '-P 1'
 
_shelx_space_group_comment
;
The symmetry employed for this shelxl refinement is uniquely defined
by the following loop, which should always be used as a source of
symmetry information in preference to the above space-group names.
They are only intended as comments.
;
 
loop_
 _space_group_symop_operation_xyz
 'x, y, z'
 '-x, -y, -z'
 
_cell_length_a                    9.2976(9)
_cell_length_b                    9.7469(10)
_cell_length_c                    10.9702(11)
_cell_angle_alpha                 69.3764(13)
_cell_angle_beta                  87.2398(13)
_cell_angle_gamma                 69.2006(13)
_cell_volume                      866.43(15)
_cell_formula_units_Z             2
_cell_measurement_temperature     300(2)
_cell_measurement_reflns_used     ?
_cell_measurement_theta_min       ?
_cell_measurement_theta_max       ?
 
_exptl_crystal_description        ?
_exptl_crystal_colour             ?
_exptl_crystal_density_meas       ?
_exptl_crystal_density_method     ?
_exptl_crystal_density_diffrn     1.383          
_exptl_crystal_F_000              378
_exptl_transmission_factor_min    ?
_exptl_transmission_factor_max    ?
_exptl_crystal_size_max           0.400
_exptl_crystal_size_mid           0.100
_exptl_crystal_size_min           0.100
_exptl_absorpt_coefficient_mu     0.244
_shelx_estimated_absorpt_T_min    0.909
_shelx_estimated_absorpt_T_max    0.976
_exptl_absorpt_correction_type    ?
_exptl_absorpt_correction_T_min   ?
_exptl_absorpt_correction_T_max   ?
_exptl_absorpt_process_details    ?
_exptl_absorpt_special_details    ?
_diffrn_ambient_temperature       300(2)
_diffrn_radiation_wavelength      0.71073
_diffrn_radiation_type            MoK\a
_diffrn_source                    ?
_diffrn_measurement_device_type   ?
_diffrn_measurement_method        ?
_diffrn_detector_area_resol_mean  ?
_diffrn_reflns_number             10277
_diffrn_reflns_av_unetI/netI      0.0201
_diffrn_reflns_av_R_equivalents   0.0157
_diffrn_reflns_limit_h_min        -12
_diffrn_reflns_limit_h_max        11
_diffrn_reflns_limit_k_min        -12
_diffrn_reflns_limit_k_max        11
_diffrn_reflns_limit_l_min        -14
_diffrn_reflns_limit_l_max        14
_diffrn_reflns_theta_min          1.991
_diffrn_reflns_theta_max          27.428
_diffrn_reflns_theta_full         25.242
_diffrn_measured_fraction_theta_max   0.988
_diffrn_measured_fraction_theta_full  0.998
_diffrn_reflns_Laue_measured_fraction_max    0.988
_diffrn_reflns_Laue_measured_fraction_full   0.998
_diffrn_reflns_point_group_measured_fraction_max   0.988
_diffrn_reflns_point_group_measured_fraction_full  0.998
_reflns_number_total              3896
_reflns_number_gt                 3040
_reflns_threshold_expression      'I > 2\s(I)'
_reflns_Friedel_coverage          0.000
_reflns_Friedel_fraction_max      .
_reflns_Friedel_fraction_full     .
 
_reflns_special_details
;
 Reflections were merged by SHELXL according to the crystal
 class for the calculation of statistics and refinement.
 
 _reflns_Friedel_fraction is defined as the number of unique
 Friedel pairs measured divided by the number that would be
 possible theoretically, ignoring centric projections and
 systematic absences.
;
 
_computing_data_collection        ?
_computing_cell_refinement        ?
_computing_data_reduction         ?
_computing_structure_solution     ?
_computing_structure_refinement 'SHELXL-2014/7 (Sheldrick, 2014)'
_computing_molecular_graphics     ?
_computing_publication_material   ?
_refine_special_details           ?
_refine_ls_structure_factor_coef  Fsqd
_refine_ls_matrix_type            full
_refine_ls_weighting_scheme       calc
_refine_ls_weighting_details
'w=1/[\s^2^(Fo^2^)+(0.0500P)^2^+0.3474P] where P=(Fo^2^+2Fc^2^)/3'
_atom_sites_solution_primary      ?
_atom_sites_solution_secondary    ?
_atom_sites_solution_hydrogens    mixed
_refine_ls_hydrogen_treatment     mixed
_refine_ls_extinction_method      none
_refine_ls_extinction_coef        .
_refine_ls_number_reflns          3896
_refine_ls_number_parameters      232
_refine_ls_number_restraints      0
_refine_ls_R_factor_all           0.0565
_refine_ls_R_factor_gt            0.0418
_refine_ls_wR_factor_ref          0.1137
_refine_ls_wR_factor_gt           0.1039
_refine_ls_goodness_of_fit_ref    1.016
_refine_ls_restrained_S_all       1.016
_refine_ls_shift/su_max           0.001
_refine_ls_shift/su_mean          0.000
 
loop_
 _atom_site_label
 _atom_site_type_symbol
 _atom_site_fract_x
 _atom_site_fract_y
 _atom_site_fract_z
 _atom_site_U_iso_or_equiv
 _atom_site_adp_type
 _atom_site_occupancy
 _atom_site_site_symmetry_order  
 _atom_site_calc_flag
 _atom_site_refinement_flags_posn
 _atom_site_refinement_flags_adp
 _atom_site_refinement_flags_occupancy
 _atom_site_disorder_assembly
 _atom_site_disorder_group
Cl1 Cl 1.30390(6) -0.44954(8) 0.56981(6) 0.0765(2) Uani 1 1 d . . . . .
O1 O 0.53652(16) -0.16979(17) 0.50462(12) 0.0555(4) Uani 1 1 d . . . . .
O2 O 0.11569(14) 0.33343(14) 0.10384(11) 0.0466(3) Uani 1 1 d . . . . .
O3 O 0.08263(18) 0.39320(18) -0.10942(12) 0.0671(5) Uani 1 1 d . . . . .
H3O H 0.010(4) 0.487(4) -0.106(3) 0.113(10) Uiso 1 1 d . . . . .
O4 O 0.72233(16) 0.41881(17) -0.09189(14) 0.0621(4) Uani 1 1 d . . . . .
N1 N 0.56697(15) -0.04021(15) 0.29255(12) 0.0349(3) Uani 1 1 d . . . . .
C1 C 1.1071(2) -0.3517(2) 0.52328(18) 0.0474(4) Uani 1 1 d . . . . .
C2 C 1.0116(2) -0.2939(2) 0.60746(17) 0.0512(5) Uani 1 1 d . . . . .
H2 H 1.0526 -0.3028 0.6868 0.061 Uiso 1 1 calc R U . . .
C3 C 0.8542(2) -0.2224(2) 0.57341(16) 0.0445(4) Uani 1 1 d . . . . .
H3 H 0.7887 -0.1858 0.6310 0.053 Uiso 1 1 calc R U . . .
C4 C 0.79379(19) -0.20501(18) 0.45317(14) 0.0363(4) Uani 1 1 d . . . . .
C5 C 0.8932(2) -0.2635(2) 0.36930(16) 0.0426(4) Uani 1 1 d . . . . .
H5 H 0.8534 -0.2521 0.2886 0.051 Uiso 1 1 calc R U . . .
C6 C 1.0498(2) -0.3382(2) 0.40427(18) 0.0473(4) Uani 1 1 d . . . . .
H6 H 1.1155 -0.3787 0.3486 0.057 Uiso 1 1 calc R U . . .
C7 C 0.6234(2) -0.13757(19) 0.42286(15) 0.0381(4) Uani 1 1 d . . . . .
C8 C 0.42721(17) -0.02089(18) 0.23105(15) 0.0345(3) Uani 1 1 d . . . . .
C9 C 0.40251(16) 0.09162(17) 0.11031(15) 0.0317(3) Uani 1 1 d . . . . .
C10 C 0.52558(16) 0.15154(17) 0.09262(14) 0.0303(3) Uani 1 1 d . . . . .
C11 C 0.55254(18) 0.27084(18) -0.01179(15) 0.0354(3) Uani 1 1 d . . . . .
H11 H 0.4855 0.3251 -0.0875 0.042 Uiso 1 1 calc R U . . .
C12 C 0.6812(2) 0.3053(2) 0.00107(17) 0.0422(4) Uani 1 1 d . . . . .
C13 C 0.7802(2) 0.2239(2) 0.11649(18) 0.0483(4) Uani 1 1 d . . . . .
H13 H 0.8662 0.2493 0.1233 0.058 Uiso 1 1 calc R U . . .
C14 C 0.7542(2) 0.1075(2) 0.22010(17) 0.0436(4) Uani 1 1 d . . . . .
H14 H 0.8196 0.0563 0.2968 0.052 Uiso 1 1 calc R U . . .
C15 C 0.62699(17) 0.06927(17) 0.20624(14) 0.0321(3) Uani 1 1 d . . . . .
C16 C 0.3348(2) -0.1209(2) 0.2929(2) 0.0508(5) Uani 1 1 d . . . . .
H16A H 0.2826 -0.0900 0.3619 0.076 Uiso 1 1 calc R U . . .
H16B H 0.4022 -0.2292 0.3281 0.076 Uiso 1 1 calc R U . . .
H16C H 0.2600 -0.1081 0.2284 0.076 Uiso 1 1 calc R U . . .
C17 C 0.27168(17) 0.14937(19) 0.00907(16) 0.0367(4) Uani 1 1 d . . . . .
H17A H 0.2252 0.0704 0.0267 0.044 Uiso 1 1 calc R U . . .
H17B H 0.3114 0.1641 -0.0762 0.044 Uiso 1 1 calc R U . . .
C18 C 0.15005(16) 0.30154(18) 0.00622(14) 0.0326(3) Uani 1 1 d . . . . .
C19 C 0.6192(2) 0.5178(2) -0.20510(18) 0.0533(5) Uani 1 1 d . . . . .
H19A H 0.6108 0.4563 -0.2543 0.080 Uiso 1 1 calc R U . . .
H19B H 0.6576 0.5971 -0.2580 0.080 Uiso 1 1 calc R U . . .
H19C H 0.5194 0.5670 -0.1798 0.080 Uiso 1 1 calc R U . . .
 
loop_
 _atom_site_aniso_label
 _atom_site_aniso_U_11
 _atom_site_aniso_U_22
 _atom_site_aniso_U_33
 _atom_site_aniso_U_23
 _atom_site_aniso_U_13
 _atom_site_aniso_U_12
Cl1 0.0438(3) 0.0790(4) 0.0799(4) 0.0005(3) -0.0169(3) -0.0175(3)
O1 0.0533(8) 0.0595(8) 0.0396(7) -0.0052(6) 0.0098(6) -0.0174(6)
O2 0.0451(7) 0.0443(7) 0.0339(6) -0.0152(5) -0.0015(5) 0.0045(5)
O3 0.0672(9) 0.0588(9) 0.0349(7) -0.0167(6) -0.0075(6) 0.0246(7)
O4 0.0580(8) 0.0607(9) 0.0543(8) 0.0072(7) 0.0004(6) -0.0334(7)
N1 0.0338(7) 0.0313(7) 0.0319(7) -0.0046(5) -0.0014(5) -0.0090(5)
C1 0.0412(9) 0.0421(10) 0.0462(10) 0.0001(8) -0.0091(7) -0.0144(8)
C2 0.0606(12) 0.0566(11) 0.0326(9) -0.0070(8) -0.0114(8) -0.0239(9)
C3 0.0556(11) 0.0435(10) 0.0306(8) -0.0108(7) 0.0005(7) -0.0157(8)
C4 0.0442(9) 0.0289(8) 0.0267(7) -0.0036(6) -0.0029(6) -0.0084(7)
C5 0.0470(9) 0.0436(9) 0.0295(8) -0.0119(7) -0.0034(7) -0.0080(8)
C6 0.0453(10) 0.0452(10) 0.0425(9) -0.0135(8) 0.0013(7) -0.0081(8)
C7 0.0452(9) 0.0307(8) 0.0313(8) -0.0076(6) 0.0011(7) -0.0089(7)
C8 0.0303(7) 0.0293(8) 0.0406(8) -0.0129(7) 0.0020(6) -0.0065(6)
C9 0.0272(7) 0.0269(7) 0.0370(8) -0.0137(6) 0.0000(6) -0.0028(6)
C10 0.0284(7) 0.0260(7) 0.0316(7) -0.0109(6) 0.0004(6) -0.0034(6)
C11 0.0343(8) 0.0327(8) 0.0302(7) -0.0062(6) -0.0015(6) -0.0063(6)
C12 0.0424(9) 0.0386(9) 0.0399(9) -0.0056(7) 0.0043(7) -0.0165(7)
C13 0.0408(9) 0.0535(11) 0.0494(10) -0.0079(8) -0.0032(7) -0.0252(8)
C14 0.0388(9) 0.0451(10) 0.0406(9) -0.0062(8) -0.0091(7) -0.0156(7)
C15 0.0323(7) 0.0279(7) 0.0300(7) -0.0064(6) -0.0004(6) -0.0075(6)
C16 0.0486(10) 0.0443(10) 0.0583(11) -0.0113(9) 0.0053(9) -0.0225(8)
C17 0.0303(8) 0.0341(8) 0.0431(9) -0.0174(7) -0.0035(6) -0.0042(6)
C18 0.0253(7) 0.0340(8) 0.0326(8) -0.0103(6) -0.0002(6) -0.0054(6)
C19 0.0656(12) 0.0433(10) 0.0395(9) -0.0029(8) 0.0084(8) -0.0190(9)
 
_geom_special_details
;
 All esds (except the esd in the dihedral angle between two l.s. planes)
 are estimated using the full covariance matrix.  The cell esds are taken
 into account individually in the estimation of esds in distances, angles
 and torsion angles; correlations between esds in cell parameters are only
 used when they are defined by crystal symmetry.  An approximate (isotropic)
 treatment of cell esds is used for estimating esds involving l.s. planes.
;
 
loop_
 _geom_bond_atom_site_label_1
 _geom_bond_atom_site_label_2
 _geom_bond_distance
 _geom_bond_site_symmetry_2
 _geom_bond_publ_flag
Cl1 C1 1.7394(18) . ?
O1 C7 1.211(2) . ?
O2 C18 1.2151(18) . ?
O3 C18 1.2965(19) . ?
O3 H3O 0.93(3) . ?
O4 C12 1.370(2) . ?
O4 C19 1.416(2) . ?
N1 C7 1.408(2) . ?
N1 C8 1.414(2) . ?
N1 C15 1.417(2) . ?
C1 C2 1.375(3) . ?
C1 C6 1.379(3) . ?
C2 C3 1.382(3) . ?
C2 H2 0.9300 . ?
C3 C4 1.390(2) . ?
C3 H3 0.9300 . ?
C4 C5 1.392(2) . ?
C4 C7 1.486(2) . ?
C5 C6 1.379(2) . ?
C5 H5 0.9300 . ?
C6 H6 0.9300 . ?
C8 C9 1.355(2) . ?
C8 C16 1.491(2) . ?
C9 C10 1.436(2) . ?
C9 C17 1.494(2) . ?
C10 C15 1.399(2) . ?
C10 C11 1.403(2) . ?
C11 C12 1.378(2) . ?
C11 H11 0.9300 . ?
C12 C13 1.403(2) . ?
C13 C14 1.378(2) . ?
C13 H13 0.9300 . ?
C14 C15 1.390(2) . ?
C14 H14 0.9300 . ?
C16 H16A 0.9600 . ?
C16 H16B 0.9600 . ?
C16 H16C 0.9600 . ?
C17 C18 1.503(2) . ?
C17 H17A 0.9700 . ?
C17 H17B 0.9700 . ?
C19 H19A 0.9600 . ?
C19 H19B 0.9600 . ?
C19 H19C 0.9600 . ?
 
loop_
 _geom_angle_atom_site_label_1
 _geom_angle_atom_site_label_2
 _geom_angle_atom_site_label_3
 _geom_angle
 _geom_angle_site_symmetry_1
 _geom_angle_site_symmetry_3
 _geom_angle_publ_flag
C18 O3 H3O 110.3(19) . . ?
C12 O4 C19 118.12(15) . . ?
C7 N1 C8 124.86(13) . . ?
C7 N1 C15 126.78(14) . . ?
C8 N1 C15 107.89(12) . . ?
C2 C1 C6 121.48(17) . . ?
C2 C1 Cl1 119.38(14) . . ?
C6 C1 Cl1 119.11(16) . . ?
C1 C2 C3 119.57(16) . . ?
C1 C2 H2 120.2 . . ?
C3 C2 H2 120.2 . . ?
C2 C3 C4 120.08(17) . . ?
C2 C3 H3 120.0 . . ?
C4 C3 H3 120.0 . . ?
C3 C4 C5 119.18(16) . . ?
C3 C4 C7 118.89(15) . . ?
C5 C4 C7 121.69(14) . . ?
C6 C5 C4 120.88(16) . . ?
C6 C5 H5 119.6 . . ?
C4 C5 H5 119.6 . . ?
C1 C6 C5 118.78(17) . . ?
C1 C6 H6 120.6 . . ?
C5 C6 H6 120.6 . . ?
O1 C7 N1 121.02(16) . . ?
O1 C7 C4 121.92(15) . . ?
N1 C7 C4 116.98(14) . . ?
C9 C8 N1 108.85(13) . . ?
C9 C8 C16 128.61(15) . . ?
N1 C8 C16 122.42(14) . . ?
C8 C9 C10 108.40(13) . . ?
C8 C9 C17 127.98(15) . . ?
C10 C9 C17 123.62(14) . . ?
C15 C10 C11 120.93(14) . . ?
C15 C10 C9 107.66(13) . . ?
C11 C10 C9 131.40(14) . . ?
C12 C11 C10 118.11(14) . . ?
C12 C11 H11 120.9 . . ?
C10 C11 H11 120.9 . . ?
O4 C12 C11 124.86(16) . . ?
O4 C12 C13 114.79(15) . . ?
C11 C12 C13 120.35(15) . . ?
C14 C13 C12 122.05(16) . . ?
C14 C13 H13 119.0 . . ?
C12 C13 H13 119.0 . . ?
C13 C14 C15 117.83(15) . . ?
C13 C14 H14 121.1 . . ?
C15 C14 H14 121.1 . . ?
C14 C15 C10 120.68(14) . . ?
C14 C15 N1 132.06(14) . . ?
C10 C15 N1 107.17(13) . . ?
C8 C16 H16A 109.5 . . ?
C8 C16 H16B 109.5 . . ?
H16A C16 H16B 109.5 . . ?
C8 C16 H16C 109.5 . . ?
H16A C16 H16C 109.5 . . ?
H16B C16 H16C 109.5 . . ?
C9 C17 C18 112.35(13) . . ?
C9 C17 H17A 109.1 . . ?
C18 C17 H17A 109.1 . . ?
C9 C17 H17B 109.1 . . ?
C18 C17 H17B 109.1 . . ?
H17A C17 H17B 107.9 . . ?
O2 C18 O3 123.34(14) . . ?
O2 C18 C17 122.97(14) . . ?
O3 C18 C17 113.66(14) . . ?
O4 C19 H19A 109.5 . . ?
O4 C19 H19B 109.5 . . ?
H19A C19 H19B 109.5 . . ?
O4 C19 H19C 109.5 . . ?
H19A C19 H19C 109.5 . . ?
H19B C19 H19C 109.5 . . ?
 
loop_
 _geom_torsion_atom_site_label_1
 _geom_torsion_atom_site_label_2
 _geom_torsion_atom_site_label_3
 _geom_torsion_atom_site_label_4
 _geom_torsion
 _geom_torsion_site_symmetry_1
 _geom_torsion_site_symmetry_2
 _geom_torsion_site_symmetry_3
 _geom_torsion_site_symmetry_4
 _geom_torsion_publ_flag
C6 C1 C2 C3 0.9(3) . . . . ?
Cl1 C1 C2 C3 -177.06(14) . . . . ?
C1 C2 C3 C4 -1.9(3) . . . . ?
C2 C3 C4 C5 1.4(3) . . . . ?
C2 C3 C4 C7 175.89(16) . . . . ?
C3 C4 C5 C6 0.1(3) . . . . ?
C7 C4 C5 C6 -174.21(16) . . . . ?
C2 C1 C6 C5 0.6(3) . . . . ?
Cl1 C1 C6 C5 178.58(14) . . . . ?
C4 C5 C6 C1 -1.1(3) . . . . ?
C8 N1 C7 O1 -25.7(2) . . . . ?
C15 N1 C7 O1 145.53(17) . . . . ?
C8 N1 C7 C4 151.13(15) . . . . ?
C15 N1 C7 C4 -37.6(2) . . . . ?
C3 C4 C7 O1 -39.0(2) . . . . ?
C5 C4 C7 O1 135.31(19) . . . . ?
C3 C4 C7 N1 144.14(16) . . . . ?
C5 C4 C7 N1 -41.5(2) . . . . ?
C7 N1 C8 C9 174.47(14) . . . . ?
C15 N1 C8 C9 1.83(17) . . . . ?
C7 N1 C8 C16 -9.2(2) . . . . ?
C15 N1 C8 C16 178.13(15) . . . . ?
N1 C8 C9 C10 -1.73(17) . . . . ?
C16 C8 C9 C10 -177.73(16) . . . . ?
N1 C8 C9 C17 178.68(14) . . . . ?
C16 C8 C9 C17 2.7(3) . . . . ?
C8 C9 C10 C15 0.99(17) . . . . ?
C17 C9 C10 C15 -179.40(13) . . . . ?
C8 C9 C10 C11 -177.88(15) . . . . ?
C17 C9 C10 C11 1.7(2) . . . . ?
C15 C10 C11 C12 -0.4(2) . . . . ?
C9 C10 C11 C12 178.33(16) . . . . ?
C19 O4 C12 C11 5.8(3) . . . . ?
C19 O4 C12 C13 -173.17(17) . . . . ?
C10 C11 C12 O4 -179.69(16) . . . . ?
C10 C11 C12 C13 -0.8(3) . . . . ?
O4 C12 C13 C14 179.23(18) . . . . ?
C11 C12 C13 C14 0.2(3) . . . . ?
C12 C13 C14 C15 1.5(3) . . . . ?
C13 C14 C15 C10 -2.7(3) . . . . ?
C13 C14 C15 N1 -178.78(17) . . . . ?
C11 C10 C15 C14 2.2(2) . . . . ?
C9 C10 C15 C14 -176.80(15) . . . . ?
C11 C10 C15 N1 179.15(13) . . . . ?
C9 C10 C15 N1 0.15(16) . . . . ?
C7 N1 C15 C14 2.8(3) . . . . ?
C8 N1 C15 C14 175.28(17) . . . . ?
C7 N1 C15 C10 -173.64(14) . . . . ?
C8 N1 C15 C10 -1.18(16) . . . . ?
C8 C9 C17 C18 100.00(19) . . . . ?
C10 C9 C17 C18 -79.53(18) . . . . ?
C9 C17 C18 O2 -35.0(2) . . . . ?
C9 C17 C18 O3 146.86(16) . . . . ?
 
loop_
 _geom_hbond_atom_site_label_D 
 _geom_hbond_atom_site_label_H 
 _geom_hbond_atom_site_label_A 
 _geom_hbond_distance_DH 
 _geom_hbond_distance_HA 
 _geom_hbond_distance_DA 
 _geom_hbond_angle_DHA 
 _geom_hbond_site_symmetry_A 
O3 H3O O2  0.93(3) 1.73(3) 2.6680(18) 176(3) 2_565
C2 H2 O2  0.93 2.70 3.268(2) 119.8 2_656
C13 H13 O2  0.93 2.70 3.620(2) 171.4 1_655
C19 H19B O1  0.96 2.74 3.427(2) 129.1 1_564
 
_refine_diff_density_max    0.446
_refine_diff_density_min   -0.510
_refine_diff_density_rms    0.039

_shelx_res_file
;

    RFH201_0m.res created by SHELXL-2014/7

TITL RFH201_0m in P-1
CELL 0.71073   9.29760   9.74690  10.97020  69.3764  87.2398  69.2006
ZERR    2.00   0.00090   0.00100   0.00110   0.0013   0.0013   0.0013
LATT 1
SFAC C  H  N  O  Cl
UNIT 38  38  2  8  2
L.S. 40
ACTA
BOND $H
FMAP 2
PLAN 20
SIZE 0.10 0.10 0.40
CONF
EQIV $1 -x, -y+1, -z
HTAB O3 O2_$1
EQIV $2 -x+1, -y, -z+1
HTAB C2 O2_$2
EQIV $3 x+1, y, z
HTAB C13 O2_$3
EQIV $4 x, y+1, z-1
HTAB C19 O1_$4
TEMP 27.000
WGHT    0.050000    0.347400
FVAR       0.24968
MOLE 1
CL1   5    1.303901   -0.449545    0.569813    11.00000    0.04379    0.07901 =
         0.07986    0.00052   -0.01686   -0.01751
O1    4    0.536520   -0.169787    0.504624    11.00000    0.05329    0.05954 =
         0.03962   -0.00521    0.00979   -0.01745
O2    4    0.115686    0.333427    0.103844    11.00000    0.04508    0.04428 =
         0.03393   -0.01521   -0.00153    0.00446
O3    4    0.082631    0.393196   -0.109418    11.00000    0.06725    0.05885 =
         0.03495   -0.01665   -0.00752    0.02459
H3O   2    0.010145    0.486915   -0.106202    11.00000    0.11332
O4    4    0.722325    0.418810   -0.091888    11.00000    0.05805    0.06069 =
         0.05426    0.00723    0.00039   -0.03341
N1    3    0.566973   -0.040213    0.292552    11.00000    0.03381    0.03135 =
         0.03190   -0.00464   -0.00136   -0.00900
C1    1    1.107118   -0.351682    0.523276    11.00000    0.04115    0.04207 =
         0.04618    0.00009   -0.00915   -0.01436
C2    1    1.011583   -0.293863    0.607464    11.00000    0.06062    0.05662 =
         0.03264   -0.00702   -0.01144   -0.02386
AFIX  43
H2    2    1.052583   -0.302815    0.686782    11.00000   -1.20000
AFIX   0
C3    1    0.854226   -0.222358    0.573412    11.00000    0.05564    0.04346 =
         0.03062   -0.01084    0.00046   -0.01574
AFIX  43
H3    2    0.788729   -0.185819    0.631043    11.00000   -1.20000
AFIX   0
C4    1    0.793787   -0.205007    0.453168    11.00000    0.04419    0.02890 =
         0.02674   -0.00364   -0.00292   -0.00840
C5    1    0.893170   -0.263503    0.369303    11.00000    0.04698    0.04363 =
         0.02948   -0.01185   -0.00343   -0.00804
AFIX  43
H5    2    0.853399   -0.252050    0.288636    11.00000   -1.20000
AFIX   0
C6    1    1.049781   -0.338192    0.404268    11.00000    0.04532    0.04521 =
         0.04249   -0.01353    0.00132   -0.00807
AFIX  43
H6    2    1.115535   -0.378723    0.348621    11.00000   -1.20000
AFIX   0
C7    1    0.623411   -0.137567    0.422865    11.00000    0.04525    0.03072 =
         0.03133   -0.00757    0.00110   -0.00892
C8    1    0.427215   -0.020887    0.231054    11.00000    0.03031    0.02925 =
         0.04065   -0.01288    0.00202   -0.00654
C9    1    0.402506    0.091621    0.110311    11.00000    0.02720    0.02689 =
         0.03702   -0.01369   -0.00002   -0.00280
C10   1    0.525581    0.151544    0.092621    11.00000    0.02840    0.02601 =
         0.03164   -0.01092    0.00036   -0.00342
C11   1    0.552541    0.270839   -0.011790    11.00000    0.03425    0.03268 =
         0.03022   -0.00616   -0.00155   -0.00632
AFIX  43
H11   2    0.485501    0.325095   -0.087537    11.00000   -1.20000
AFIX   0
C12   1    0.681155    0.305340    0.001067    11.00000    0.04244    0.03857 =
         0.03990   -0.00557    0.00426   -0.01652
C13   1    0.780248    0.223927    0.116487    11.00000    0.04080    0.05354 =
         0.04938   -0.00786   -0.00322   -0.02516
AFIX  43
H13   2    0.866228    0.249300    0.123284    11.00000   -1.20000
AFIX   0
C14   1    0.754189    0.107546    0.220104    11.00000    0.03879    0.04506 =
         0.04063   -0.00621   -0.00909   -0.01556
AFIX  43
H14   2    0.819578    0.056265    0.296823    11.00000   -1.20000
AFIX   0
C15   1    0.626986    0.069274    0.206240    11.00000    0.03232    0.02789 =
         0.02999   -0.00638   -0.00042   -0.00754
C16   1    0.334774   -0.120946    0.292862    11.00000    0.04858    0.04432 =
         0.05827   -0.01130    0.00531   -0.02254
AFIX 137
H16A  2    0.282589   -0.090005    0.361903    11.00000   -1.50000
H16B  2    0.402168   -0.229183    0.328088    11.00000   -1.50000
H16C  2    0.260045   -0.108075    0.228393    11.00000   -1.50000
AFIX   0
C17   1    0.271676    0.149370    0.009073    11.00000    0.03028    0.03406 =
         0.04311   -0.01743   -0.00349   -0.00420
AFIX  23
H17A  2    0.225153    0.070371    0.026738    11.00000   -1.20000
H17B  2    0.311399    0.164139   -0.076151    11.00000   -1.20000
AFIX   0
C18   1    0.150054    0.301545    0.006223    11.00000    0.02530    0.03396 =
         0.03264   -0.01028   -0.00017   -0.00544
C19   1    0.619215    0.517760   -0.205105    11.00000    0.06563    0.04329 =
         0.03952   -0.00285    0.00838   -0.01897
AFIX 137
H19A  2    0.610762    0.456296   -0.254299    11.00000   -1.50000
H19B  2    0.657597    0.597075   -0.257988    11.00000   -1.50000
H19C  2    0.519398    0.566977   -0.179766    11.00000   -1.50000
AFIX   0
HKLF 4

REM  RFH201_0m in P-1
REM R1 =  0.0418 for    3040 Fo > 4sig(Fo)  and  0.0565 for all    3896 data
REM    232 parameters refined using      0 restraints

END

WGHT      0.0476      0.3400

REM Highest difference peak  0.446,  deepest hole -0.510,  1-sigma level  0.039
Q1    1   1.2704 -0.3572  0.5871  11.00000  0.05    0.45
Q2    1   1.2934 -0.5114  0.6418  11.00000  0.05    0.25
Q3    1   0.0401  0.3204 -0.0678  11.00000  0.05    0.23
Q4    1   0.5909  0.1071  0.1424  11.00000  0.05    0.21
Q5    1   1.0647 -0.2798  0.5434  11.00000  0.05    0.19
Q6    1   0.6449  0.2514 -0.0228  11.00000  0.05    0.18
Q7    1   0.7200 -0.1676  0.4346  11.00000  0.05    0.18
Q8    1   0.3863  0.0642  0.1825  11.00000  0.05    0.17
Q9    1   0.6077 -0.0007  0.2508  11.00000  0.05    0.17
Q10   1   0.1735  0.3787  0.0631  11.00000  0.05    0.17
Q11   1   0.2122  0.2129  0.0164  11.00000  0.05    0.17
Q12   1   0.6585  0.1168  0.2317  11.00000  0.05    0.17
Q13   1   0.8307 -0.2463  0.4190  11.00000  0.05    0.16
Q14   1   0.4577  0.1276  0.0951  11.00000  0.05    0.16
Q15   1   0.4864 -0.0105  0.2769  11.00000  0.05    0.16
Q16   1   0.9427 -0.2053  0.5621  11.00000  0.05    0.15
Q17   1   0.1439  0.3942 -0.0662  11.00000  0.05    0.15
Q18   1   0.4405  0.0072  0.1480  11.00000  0.05    0.15
Q19   1   0.8237 -0.1968  0.5000  11.00000  0.05    0.15
Q20   1   0.3399  0.1180  0.0647  11.00000  0.05    0.15
;
_shelx_res_checksum   93770

_shelx_hkl_file
;
  -1   0   0   71.82    0.64
  -1   0   0   72.21    0.63
   1   0   0   70.46    0.64
   1   0   0   72.83    0.63
   1   0   0   72.64    0.63
  -2   0   0   11.18    0.15
  -2   0   0   11.33    0.15
   2   0   0   11.28    0.14
   2   0   0   11.24    0.16
   2   0   0   11.26    0.14
  -3   0   0    3.86    0.10
  -3   0   0    3.84    0.10
   3   0   0    3.81    0.08
   3   0   0    3.92    0.11
   3   0   0    3.82    0.08
  -4   0   0    8.40    0.17
  -4   0   0    8.35    0.16
   4   0   0    8.48    0.15
   4   0   0    8.37    0.18
   4   0   0    8.36    0.14
  -5   0   0   26.48    0.37
  -5   0   0   26.04    0.35
   5   0   0   25.64    0.32
   5   0   0   25.58    0.38
   5   0   0   26.07    0.32
  -6   0   0    5.20    0.17
  -6   0   0    5.04    0.16
   6   0   0    5.21    0.18
   6   0   0    5.09    0.14
   6   0   0    5.29    0.14
  -7   0   0   10.05    0.24
  -7   0   0   10.75    0.26
   7   0   0   10.65    0.22
   7   0   0   10.40    0.27
  -8   0   0    0.58    0.10
  -8   0   0    0.63    0.09
   8   0   0    0.93    0.12
  -9   0   0    0.77    0.12
   9   0   0    0.51    0.11
 -10   0   0    0.67    0.12
  10   0   0    0.95    0.15
  11   0   0    0.03    0.11
  10  -1   0    3.15    0.23
 -10   1   0    3.40    0.22
   9  -1   0    0.30    0.11
  -9   1   0    0.29    0.10
   8  -1   0    4.64    0.22
  -8   1   0    4.50    0.21
   7  -1   0   12.06    0.31
  -7   1   0   11.79    0.29
  -7   1   0   11.81    0.26
   6  -1   0    7.60    0.23
   6  -1   0    7.42    0.16
   6  -1   0    7.41    0.16
  -6   1   0    7.63    0.19
  -6   1   0    7.39    0.21
   5  -1   0   23.04    0.38
   5  -1   0   22.63    0.29
   5  -1   0   23.01    0.29
  -5   1   0   23.70    0.33
  -5   1   0   22.91    0.36
   4  -1   0   17.15    0.29
   4  -1   0   16.84    0.22
   4  -1   0   16.68    0.22
  -4   1   0   16.83    0.25
  -4   1   0   17.40    0.28
   3  -1   0    0.03    0.02
   3  -1   0    0.02    0.04
   3  -1   0    0.05    0.02
  -3   1   0    0.00    0.03
  -3   1   0    0.01    0.03
   2  -1   0  179.69    1.57
   2  -1   0  179.36    1.62
   2  -1   0  185.93    1.59
   2  -1   0  178.72    1.56
  -2   1   0  181.51    1.65
   1  -1   0  201.41    1.99
   1  -1   0  210.35    1.87
   0  -1   0    1.85    0.05
   0  -1   0    1.81    0.05
   0   1   0    1.79    0.04
   0   1   0    1.89    0.05
  -1  -1   0  258.07    2.29
  -1  -1   0  255.00    2.43
   1   1   0  256.42    2.31
   1   1   0  260.75    2.39
  -2  -1   0   36.66    0.37
  -2  -1   0   35.97    0.35
   2   1   0   36.18    0.36
   2   1   0   36.22    0.36
  -3  -1   0  184.81    1.60
  -3  -1   0  180.02    1.62
   3   1   0  182.54    1.62
   3   1   0  180.17    1.65
  -4  -1   0   41.83    0.47
  -4  -1   0   41.66    0.46
   4   1   0   41.60    0.48
   4   1   0   41.45    0.45
  -5  -1   0  170.04    1.60
  -5  -1   0  172.25    1.59
   5   1   0  170.38    1.61
   5   1   0  171.18    1.56
  -6  -1   0    2.04    0.11
  -6  -1   0    1.85    0.11
   6   1   0    1.83    0.12
   6   1   0    1.89    0.09
  -7  -1   0    1.80    0.12
  -7  -1   0    1.94    0.12
   7   1   0    1.99    0.11
   7   1   0    1.69    0.13
  -8  -1   0    0.14    0.07
  -8  -1   0    0.11    0.07
   8   1   0    0.08    0.08
   8   1   0    0.12    0.05
  -9  -1   0    0.09    0.07
  -9  -1   0   -0.12    0.06
   9   1   0    0.01    0.09
  10   1   0    0.97    0.14
  11   1   0    0.39    0.13
  10  -2   0    1.00    0.17
 -10   2   0    0.69    0.14
   9  -2   0    6.58    0.29
  -9   2   0    7.32    0.29
   8  -2   0    0.72    0.13
  -8   2   0    0.70    0.12
   7  -2   0    4.54    0.21
  -7   2   0    4.61    0.20
   6  -2   0    7.77    0.25
  -6   2   0    8.18    0.24
  -6   2   0    8.10    0.20
   5  -2   0    6.41    0.13
   5  -2   0    6.48    0.14
   5  -2   0    6.42    0.20
  -5   2   0    6.50    0.20
  -5   2   0    6.26    0.16
   4  -2   0    0.61    0.04
   4  -2   0    0.60    0.08
   4  -2   0    0.65    0.05
  -4   2   0    0.64    0.06
  -4   2   0    0.78    0.08
   3  -2   0   40.14    0.41
   3  -2   0   40.12    0.50
   3  -2   0   40.90    0.46
   3  -2   0   39.94    0.41
  -3   2   0   39.53    0.49
   2  -2   0   96.72    0.87
   2  -2   0   95.18    0.94
   2  -2   0   96.18    0.91
  -2   2   0   95.30    0.93
   1  -2   0   43.74    0.44
   1  -2   0   43.41    0.46
  -1   2   0   42.18    0.46
   0  -2   0   34.72    0.36
   0  -2   0   34.09    0.36
   0   2   0   34.93    0.35
   0   2   0   34.30    0.36
  -1  -2   0  402.75    3.79
  -1  -2   0  405.80    3.66
   1   2   0  408.21    3.66
   1   2   0  402.86    3.79
  -2  -2   0   17.57    0.23
  -2  -2   0   17.48    0.20
   2   2   0   17.34    0.21
  -3  -2   0  189.37    1.65
  -3  -2   0  187.99    1.70
   3   2   0  185.04    1.68
   3   2   0  192.27    1.67
  -4  -2   0    7.46    0.14
  -4  -2   0    6.90    0.16
   4   2   0    7.35    0.15
   4   2   0    7.40    0.15
  -5  -2   0   10.82    0.19
  -5  -2   0   10.80    0.22
   5   2   0   10.53    0.21
   5   2   0   10.95    0.20
  -6  -2   0    0.09    0.05
  -6  -2   0    0.01    0.05
   6   2   0    0.05    0.05
   6   2   0   -0.01    0.04
  -7  -2   0   -0.03    0.05
  -7  -2   0   -0.02    0.05
   7   2   0    0.02    0.05
   7   2   0    0.00    0.06
  -8  -2   0   21.18    0.37
  -8  -2   0   20.81    0.39
   8   2   0   21.14    0.36
   8   2   0   21.07    0.40
  -9  -2   0    0.23    0.08
   9   2   0    0.29    0.09
 -10  -2   0    1.62    0.15
  10   2   0    1.51    0.16
  11   2   0    1.62    0.18
   9  -3   0    0.39    0.14
  -9   3   0    0.70    0.14
   8  -3   0    0.42    0.12
  -8   3   0    0.39    0.11
   7  -3   0    0.27    0.10
  -7   3   0    0.42    0.10
   6  -3   0    0.37    0.10
  -6   3   0    0.30    0.09
   5  -3   0    5.37    0.20
  -5   3   0    5.01    0.19
  -5   3   0    5.37    0.16
   4  -3   0   52.61    0.60
   4  -3   0   51.85    0.53
   4  -3   0   51.39    0.66
   4  -3   0   51.55    0.53
  -4   3   0   50.62    0.65
   3  -3   0   12.22    0.22
   3  -3   0   11.97    0.25
   3  -3   0   12.16    0.18
  -3   3   0   12.33    0.25
   2  -3   0   27.90    0.38
   2  -3   0   28.23    0.36
  -2   3   0   27.81    0.38
   1  -3   0    8.02    0.17
   1  -3   0    8.40    0.16
  -1   3   0    8.19    0.17
   0  -3   0    1.94    0.08
   0  -3   0    1.98    0.08
   0   3   0    1.96    0.07
   0   3   0    1.76    0.08
  -1  -3   0  428.35    4.13
  -1  -3   0  431.18    3.96
   1   3   0  430.88    3.98
   1   3   0  431.41    4.01
  -2  -3   0  130.19    1.17
  -2  -3   0  129.98    1.22
   2   3   0  130.61    1.16
   2   3   0  131.67    1.21
  -3  -3   0   91.39    0.84
  -3  -3   0   88.42    0.89
   3   3   0   90.44    0.85
   3   3   0   90.64    0.88
  -4  -3   0    0.35    0.06
  -4  -3   0    0.31    0.04
   4   3   0    0.32    0.05
   4   3   0    0.42    0.05
  -5  -3   0   11.17    0.19
  -5  -3   0   11.27    0.23
   5   3   0   11.43    0.21
   5   3   0   11.04    0.22
  -6  -3   0   38.92    0.47
  -6  -3   0   38.42    0.52
   6   3   0   38.53    0.50
   6   3   0   38.42    0.50
  -7  -3   0    6.99    0.18
  -7  -3   0    6.90    0.21
   7   3   0    7.11    0.20
   7   3   0    6.90    0.20
  -8  -3   0    0.11    0.08
  -8  -3   0    0.14    0.07
   8   3   0    0.20    0.08
   8   3   0    0.13    0.06
  -9  -3   0    2.36    0.17
   9   3   0    2.53    0.15
   9   3   0    2.34    0.17
 -10  -3   0    1.08    0.13
  10   3   0    0.89    0.13
 -11  -3   0    0.01    0.08
   9  -4   0    0.01    0.13
  -9   4   0    0.14    0.11
   8  -4   0    0.36    0.12
  -8   4   0    0.20    0.11
   7  -4   0    2.52    0.21
  -7   4   0    2.13    0.18
   6  -4   0    3.44    0.21
  -6   4   0    3.04    0.19
   5  -4   0    1.67    0.15
  -5   4   0    1.36    0.13
   4  -4   0    0.15    0.08
   4  -4   0    0.16    0.06
  -4   4   0    0.09    0.06
   3  -4   0   11.26    0.23
   3  -4   0   11.34    0.27
   3  -4   0   11.17    0.18
  -3   4   0   11.17    0.26
   2  -4   0    0.04    0.05
   2  -4   0   -0.03    0.05
  -2   4   0    0.04    0.05
   1  -4   0    0.03    0.04
   1  -4   0    0.01    0.04
  -1   4   0   -0.01    0.04
   0  -4   0    9.82    0.19
   0  -4   0    9.24    0.18
   0   4   0    9.62    0.18
  -1  -4   0    1.89    0.08
  -1  -4   0    1.81    0.09
   1   4   0    1.85    0.08
   1   4   0    1.94    0.09
  -2  -4   0    0.87    0.07
  -2  -4   0    0.95    0.06
   2   4   0    0.95    0.07
   2   4   0    1.10    0.06
  -3  -4   0    0.17    0.05
  -3  -4   0    0.07    0.03
   3   4   0    0.13    0.03
   3   4   0    0.12    0.04
  -4  -4   0    5.50    0.16
  -4  -4   0    5.44    0.13
   4   4   0    5.65    0.14
   4   4   0    5.58    0.15
  -5  -4   0   23.75    0.31
  -5  -4   0   23.55    0.37
   5   4   0   23.90    0.33
   5   4   0   23.41    0.36
  -6  -4   0   32.45    0.48
  -6  -4   0   32.43    0.41
   6   4   0   32.46    0.46
   6   4   0   33.15    0.44
  -7  -4   0    5.93    0.20
  -7  -4   0    6.20    0.22
   7   4   0    5.74    0.19
   7   4   0    5.92    0.19
  -8  -4   0   14.78    0.34
   8   4   0   15.30    0.32
   8   4   0   15.30    0.32
  -9  -4   0   11.30    0.31
   9   4   0   10.80    0.29
   9   4   0   11.28    0.29
 -10  -4   0    0.07    0.08
  10   4   0    0.08    0.07
 -11  -4   0    1.36    0.16
 -12  -4   0    0.43    0.12
   8  -5   0    2.89    0.24
  -8   5   0    3.48    0.24
   7  -5   0    0.21    0.11
  -7   5   0    0.47    0.12
   6  -5   0   -0.04    0.09
  -6   5   0    0.01    0.09
   5  -5   0    0.03    0.09
  -5   5   0    0.13    0.08
   4  -5   0    0.33    0.09
  -4   5   0    0.26    0.08
   3  -5   0    0.48    0.09
   3  -5   0    0.54    0.08
  -3   5   0    0.57    0.09
   2  -5   0   10.02    0.23
   2  -5   0    9.60    0.24
  -2   5   0    9.78    0.24
   1  -5   0   10.59    0.24
   1  -5   0   10.62    0.23
  -1   5   0   10.53    0.23
   0  -5   0    6.40    0.17
   0  -5   0    6.59    0.17
   0   5   0    6.07    0.16
  -1  -5   0   26.83    0.36
  -1  -5   0   26.29    0.38
   1   5   0   27.01    0.36
   1   5   0   27.11    0.36
  -2  -5   0   32.63    0.44
  -2  -5   0   32.08    0.39
   2   5   0   31.89    0.42
   2   5   0   31.21    0.38
  -3  -5   0   71.96    0.73
  -3  -5   0   73.25    0.81
   3   5   0   72.65    0.79
   3   5   0   72.14    0.72
  -4  -5   0   27.13    0.41
  -4  -5   0   26.76    0.34
   4   5   0   27.51    0.40
   4   5   0   27.17    0.33
  -5  -5   0    0.08    0.04
  -5  -5   0   -0.01    0.05
   5   5   0    0.00    0.04
   5   5   0    0.09    0.05
   6   5   0   12.90    0.25
   6   5   0   13.45    0.28
  -7  -5   0    0.38    0.09
   7   5   0    0.19    0.07
   7   5   0    0.14    0.07
  -8  -5   0    0.23    0.08
   8   5   0    0.14    0.07
  -9  -5   0    0.36    0.10
   9   5   0    0.37    0.09
 -10  -5   0    0.09    0.09
  10   5   0    0.18    0.08
 -11  -5   0    1.78    0.18
  11   5   0    1.69    0.15
   7  -6   0    5.58    0.29
  -7   6   0    5.10    0.28
   6  -6   0    0.17    0.11
  -6   6   0    0.49    0.12
   5  -6   0    0.06    0.10
  -5   6   0    0.29    0.09
   4  -6   0    2.11    0.17
  -4   6   0    2.01    0.16
   3  -6   0    4.73    0.21
  -3   6   0    5.12    0.21
   2  -6   0    1.94    0.14
   2  -6   0    1.80    0.13
  -2   6   0    1.61    0.13
   1  -6   0    3.91    0.16
   1  -6   0    3.90    0.16
  -1   6   0    3.94    0.16
   0  -6   0    0.26    0.07
   0  -6   0    0.29    0.07
   0   6   0    0.40    0.07
  -1  -6   0    7.98    0.20
  -1  -6   0    8.24    0.22
   1   6   0    8.18    0.20
   1   6   0    8.14    0.19
  -2  -6   0   30.61    0.45
  -2  -6   0   30.24    0.40
   2   6   0   30.15    0.40
   2   6   0   30.22    0.43
  -3  -6   0    0.11    0.05
  -3  -6   0    0.03    0.06
   3   6   0    0.09    0.04
   3   6   0    0.07    0.05
  -4  -6   0    4.69    0.14
  -4  -6   0    4.77    0.18
   4   6   0    4.78    0.13
   4   6   0    4.71    0.17
  -5  -6   0    5.38    0.15
  -5  -6   0    5.30    0.20
   5   6   0    5.57    0.19
   5   6   0    5.40    0.16
  -6  -6   0   14.58    0.33
   6   6   0   14.46    0.31
   6   6   0   15.19    0.27
  -7  -6   0   20.60    0.42
   7   6   0   20.51    0.40
  -8  -6   0    0.19    0.09
   8   6   0    0.13    0.07
  -9  -6   0    2.49    0.19
   9   6   0    2.61    0.18
 -10  -6   0    3.07    0.22
  10   6   0    2.98    0.20
 -11  -6   0    0.19    0.10
  11   6   0   -0.07    0.07
   6  -7   0    0.27    0.12
  -6   7   0    0.08    0.10
   5  -7   0    1.81    0.18
  -5   7   0    2.01    0.19
   4  -7   0    0.21    0.10
  -4   7   0    0.16    0.09
   3  -7   0    0.00    0.08
  -3   7   0   -0.09    0.07
   2  -7   0   -0.03    0.07
  -2   7   0    0.05    0.07
   1  -7   0    4.37    0.19
   1  -7   0    4.44    0.19
  -1   7   0    4.13    0.18
   0  -7   0    2.98    0.16
   0  -7   0    3.16    0.16
   0   7   0    3.13    0.15
  -1  -7   0    8.49    0.25
  -1  -7   0    8.50    0.22
   1   7   0    8.23    0.22
  -2  -7   0   -0.03    0.05
  -2  -7   0   -0.04    0.06
   2   7   0   -0.05    0.05
   2   7   0    0.05    0.05
  -3  -7   0    9.27    0.21
  -3  -7   0    9.69    0.26
   3   7   0    9.53    0.24
   3   7   0    9.20    0.20
  -4  -7   0   34.76    0.54
  -4  -7   0   33.93    0.45
   4   7   0   34.75    0.44
   4   7   0   34.69    0.51
  -5  -7   0   20.89    0.41
   5   7   0   21.31    0.39
  -6  -7   0    2.59    0.18
   6   7   0    2.72    0.17
  -7  -7   0   11.62    0.33
   7   7   0   11.40    0.30
  -8  -7   0   -0.15    0.08
   8   7   0   -0.04    0.07
  -9  -7   0    3.74    0.23
   9   7   0    3.90    0.22
 -10  -7   0   -0.06    0.09
  10   7   0    0.05    0.08
 -11  -7   0    2.34    0.21
  11   7   0    2.63    0.20
   5  -8   0    0.00    0.10
  -5   8   0    0.03    0.10
   4  -8   0    2.76    0.22
  -4   8   0    2.78    0.21
   3  -8   0    0.64    0.13
  -3   8   0    0.89    0.13
   2  -8   0    1.72    0.16
  -2   8   0    1.62    0.15
   1  -8   0    0.65    0.11
  -1   8   0    0.65    0.11
   0  -8   0    0.81    0.11
   0  -8   0    0.53    0.10
   0   8   0    0.63    0.10
  -1  -8   0    1.07    0.11
  -1  -8   0    1.21    0.13
   1   8   0    1.08    0.11
  -2  -8   0    0.11    0.08
  -2  -8   0    0.07    0.06
   2   8   0    0.02    0.05
   2   8   0    0.03    0.06
  -3  -8   0   -0.09    0.05
  -3  -8   0   -0.09    0.07
   3   8   0    0.02    0.06
   3   8   0    0.08    0.06
  -4  -8   0    7.56    0.26
   4   8   0    7.25    0.24
  -5  -8   0    0.06    0.08
   5   8   0    0.03    0.07
  -6  -8   0    1.94    0.17
   6   8   0    2.16    0.16
  -7  -8   0    0.61    0.12
   7   8   0    0.72    0.11
  -8  -8   0    2.95    0.22
   8   8   0    3.35    0.20
  -9  -8   0    0.14    0.11
   9   8   0    0.16    0.09
 -10  -8   0    1.24    0.17
  10   8   0    0.96    0.14
 -11  -8   0    0.13    0.13
  11   8   0    0.20    0.10
   3  -9   0    0.03    0.10
  -3   9   0    0.03    0.10
   2  -9   0    6.91    0.29
  -2   9   0    6.49    0.27
   1  -9   0    1.42    0.15
  -1   9   0    1.26    0.14
   0  -9   0    0.43    0.10
   0   9   0    0.16    0.09
  -1  -9   0    1.47    0.14
  -1  -9   0    1.38    0.14
   1   9   0    1.42    0.13
  -2  -9   0    1.30    0.14
   2   9   0    1.03    0.11
  -3  -9   0    1.84    0.16
   3   9   0    1.71    0.14
  -4  -9   0    2.88    0.20
   4   9   0    2.82    0.18
  -5  -9   0    0.10    0.10
   5   9   0    0.08    0.08
  -6  -9   0    0.22    0.11
   6   9   0    0.18    0.08
  -7  -9   0    0.63    0.13
   7   9   0    0.56    0.11
  -8  -9   0    1.23    0.16
   8   9   0    1.11    0.13
  -9  -9   0   -0.18    0.11
   9   9   0    0.12    0.09
 -10  -9   0    1.42    0.19
  10   9   0    2.00    0.19
   2 -10   0    0.21    0.12
  -2  10   0    0.18    0.11
   1 -10   0    0.21    0.11
  -1  10   0    0.47    0.11
   0  10   0    0.27    0.10
   1  10   0    1.12    0.13
  -2 -10   0    1.46    0.16
  -3 -10   0    0.20    0.11
  -4 -10   0    0.31    0.11
   4  10   0    0.34    0.10
  -5 -10   0    5.47    0.27
   5  10   0    6.14    0.25
  -6 -10   0    0.21    0.12
   6  10   0    0.12    0.09
  -7 -10   0    0.06    0.11
   7  10   0    0.03    0.09
  -8 -10   0   -0.05    0.11
   8  10   0    0.11    0.09
  -9 -10   0    0.24    0.13
   9  10   0    0.19    0.10
  -3 -11   0    0.26    0.12
  -4 -11   0    0.39    0.12
  -5 -11   0    0.24    0.12
   5  11   0    0.02    0.09
  -6 -11   0    0.99    0.17
   6  11   0    0.81    0.14
  -7 -11   0    0.13    0.13
   7  11   0    0.17    0.10
  -8 -11   0    0.03    0.13
   8  11   0    0.25    0.11
   7  11  -1    0.06    0.10
  -7 -11   1   -0.12    0.12
   6  11  -1    0.11    0.10
  -6 -11   1    0.16    0.13
   5  11  -1    3.97    0.25
  -5 -11   1    3.55    0.27
   4  11  -1    0.24    0.11
  -4 -11   1    0.22    0.12
  -3 -11   1    0.16    0.11
   9  10  -1    0.17    0.12
  -9 -10   1    0.07    0.17
   8  10  -1    0.47    0.12
  -8 -10   1    0.29    0.14
   7  10  -1   -0.05    0.08
  -7 -10   1    0.06    0.11
   6  10  -1    0.04    0.09
  -6 -10   1    0.17    0.12
   5  10  -1    4.31    0.23
  -5 -10   1    4.50    0.27
   4  10  -1    0.93    0.13
  -4 -10   1    0.78    0.14
   3  10  -1   -0.08    0.07
  -3 -10   1   -0.10    0.10
  -2 -10   1    4.28    0.24
   1  10  -1    6.44    0.25
   0  10  -1    0.11    0.09
  -1  10  -1    0.42    0.11
  10   9  -1   -0.06    0.09
 -10  -9   1    0.04    0.12
   9   9  -1    0.51    0.11
  -9  -9   1    0.37    0.14
   8   9  -1    1.19    0.14
  -8  -9   1    1.19    0.18
   7   9  -1    0.26    0.10
  -7  -9   1    0.13    0.11
   6   9  -1   -0.01    0.07
  -6  -9   1    0.12    0.11
   5   9  -1    0.41    0.09
  -5  -9   1    0.58    0.12
   4   9  -1    0.41    0.09
  -4  -9   1    0.53    0.12
   3   9  -1    8.43    0.27
  -3  -9   1    8.75    0.30
   2   9  -1    0.12    0.07
  -2  -9   1    0.06    0.09
   1   9  -1    0.14    0.08
  -1  -9   1    0.21    0.10
   0   9  -1    6.00    0.24
   0  -9   1    6.20    0.39
  -1   9  -1    1.41    0.15
   1  -9   1    1.25    0.15
  -2   9  -1    0.10    0.10
   2  -9   1    0.07    0.09
  -3   9  -1   10.21    0.35
   3  -9   1   11.05    0.37
  10   8  -1   -0.13    0.08
 -10  -8   1    0.03    0.11
   9   8  -1    0.34    0.10
  -9  -8   1    0.30    0.13
   8   8  -1    1.94    0.16
  -8  -8   1    2.46    0.21
   7   8  -1    0.27    0.09
  -7  -8   1    0.24    0.11
   6   8  -1    0.18    0.08
  -6  -8   1    0.07    0.09
   5   8  -1    0.05    0.07
  -5  -8   1    0.03    0.09
   4   8  -1   16.20    0.35
  -4  -8   1   16.67    0.39
   3   8  -1    9.32    0.24
   3   8  -1    8.72    0.25
  -3  -8   1    9.02    0.29
   2   8  -1    9.60    0.25
   2   8  -1    9.32    0.25
  -2  -8   1    9.12    0.29
   1   8  -1    3.47    0.17
  -1  -8   1    3.11    0.16
  -1  -8   1    3.22    0.20
   0   8  -1    7.34    0.24
   0  -8   1    6.66    0.23
   0  -8   1    6.75    0.25
  -1   8  -1    0.44    0.10
   1  -8   1    0.67    0.11
   1  -8   1    0.72    0.13
  -2   8  -1   12.15    0.34
   2  -8   1   12.32    0.35
  -3   8  -1    3.95    0.23
   3  -8   1    4.13    0.24
  -4   8  -1    7.84    0.31
   4  -8   1    7.47    0.31
  11   7  -1    0.04    0.09
 -11  -7   1    0.04    0.12
  10   7  -1   -0.04    0.08
 -10  -7   1   -0.11    0.10
   9   7  -1    0.65    0.12
  -9  -7   1    0.66    0.13
   8   7  -1    1.61    0.14
  -8  -7   1    1.95    0.17
   7   7  -1    0.62    0.10
  -7  -7   1    0.89    0.13
   6   7  -1    8.03    0.26
  -6  -7   1    7.96    0.27
   5   7  -1    7.97    0.24
  -5  -7   1    8.54    0.27
   4   7  -1    6.51    0.21
   4   7  -1    6.14    0.18
  -4  -7   1    6.26    0.24
   3   7  -1    2.22    0.14
   3   7  -1    2.38    0.12
  -3  -7   1    2.03    0.16
   2   7  -1   10.21    0.24
   2   7  -1   10.99    0.25
  -2  -7   1   10.45    0.29
  -2  -7   1   10.62    0.23
   1   7  -1    0.18    0.06
   1   7  -1    0.19    0.07
  -1  -7   1    0.11    0.06
  -1  -7   1    0.05    0.07
   0   7  -1    3.30    0.16
   0  -7   1    3.22    0.18
   0  -7   1    3.01    0.16
  -1   7  -1    7.72    0.25
   1  -7   1    8.05    0.24
   1  -7   1    8.11    0.26
  -2   7  -1    0.69    0.11
   2  -7   1    0.54    0.11
   2  -7   1    0.70    0.11
  -3   7  -1    0.54    0.11
   3  -7   1    0.68    0.12
  -4   7  -1    1.49    0.15
   4  -7   1    1.67    0.17
  -5   7  -1    7.75    0.31
   5  -7   1    8.42    0.33
  -6   7  -1    0.12    0.12
   6  -7   1    0.24    0.12
  11   6  -1    0.06    0.08
 -11  -6   1    0.04    0.10
  10   6  -1    0.93    0.12
 -10  -6   1    0.72    0.13
   9   6  -1    0.25    0.09
  -9  -6   1    0.41    0.11
   8   6  -1    3.12    0.19
  -8  -6   1    3.33    0.20
   7   6  -1    0.69    0.10
  -7  -6   1    0.57    0.10
   6   6  -1   14.27    0.32
  -6  -6   1   15.00    0.34
   5   6  -1    8.10    0.19
   5   6  -1    8.05    0.23
  -5  -6   1    8.01    0.25
   4   6  -1    7.53    0.18
   4   6  -1    7.91    0.22
  -4  -6   1    7.88    0.18
  -4  -6   1    7.92    0.24
   3   6  -1    1.40    0.10
   3   6  -1    1.15    0.09
  -3  -6   1    1.07    0.11
  -3  -6   1    1.30    0.08
   2   6  -1    3.59    0.14
   2   6  -1    3.57    0.14
  -2  -6   1    3.18    0.17
  -2  -6   1    3.44    0.12
   1   6  -1   40.36    0.53
   1   6  -1   40.40    0.51
  -1  -6   1   40.95    0.52
  -1  -6   1   40.36    0.57
   0   6  -1   12.25    0.27
   0  -6   1   11.87    0.26
   0  -6   1   11.98    0.28
  -1   6  -1    4.41    0.18
   1  -6   1    4.41    0.17
   1  -6   1    4.49    0.19
  -2   6  -1    9.52    0.26
   2  -6   1    9.31    0.26
   2  -6   1    9.63    0.27
  -3   6  -1    0.55    0.10
   3  -6   1    0.51    0.10
   3  -6   1    0.46    0.09
  -4   6  -1    1.73    0.16
   4  -6   1    1.73    0.16
  -5   6  -1    0.57    0.12
   5  -6   1    0.58    0.12
  -6   6  -1    3.56    0.23
   6  -6   1    3.21    0.23
  -7   6  -1    0.05    0.11
   7  -6   1    0.09    0.11
  11   5  -1    0.93    0.13
 -11  -5   1    0.87    0.14
  10   5  -1    0.83    0.12
 -10  -5   1    0.99    0.14
   9   5  -1   -0.03    0.07
  -9  -5   1   -0.02    0.08
   8   5  -1    2.21    0.16
  -8  -5   1    2.36    0.16
   7   5  -1   29.92    0.48
  -7  -5   1   29.67    0.50
   6   5  -1    0.03    0.06
  -6  -5   1    0.09    0.06
  -6  -5   1    0.03    0.06
   5   5  -1    3.53    0.11
   5   5  -1    3.20    0.15
  -5  -5   1    3.43    0.13
  -5  -5   1    3.23    0.16
   4   5  -1    1.35    0.08
   4   5  -1    1.44    0.11
  -4  -5   1    1.57    0.12
  -4  -5   1    1.26    0.07
   3   5  -1   57.41    0.66
   3   5  -1   57.99    0.63
  -3  -5   1   57.08    0.59
  -3  -5   1   57.72    0.69
   2   5  -1   14.36    0.25
   2   5  -1   14.43    0.25
  -2  -5   1   14.12    0.22
  -2  -5   1   14.67    0.29
   1   5  -1   15.82    0.27
   1   5  -1   15.92    0.26
  -1  -5   1   15.65    0.25
  -1  -5   1   15.79    0.29
   0   5  -1    5.92    0.15
   0   5  -1    5.68    0.17
   0  -5   1    5.74    0.16
   0  -5   1    6.12    0.19
  -1   5  -1    1.67    0.11
   1  -5   1    1.50    0.12
   1  -5   1    1.49    0.11
  -2   5  -1   29.63    0.46
   2  -5   1   28.30    0.45
   2  -5   1   27.72    0.44
  -3   5  -1   20.57    0.39
   3  -5   1   20.50    0.37
   3  -5   1   20.25    0.39
  -4   5  -1    1.47    0.13
   4  -5   1    1.54    0.14
   4  -5   1    1.55    0.13
  -5   5  -1    1.24    0.14
   5  -5   1    1.26    0.14
  -6   5  -1    0.55    0.12
   6  -5   1    0.80    0.13
  -7   5  -1    0.07    0.10
   7  -5   1    0.05    0.10
  -8   5  -1    0.15    0.12
  11   4  -1    0.15    0.08
 -11  -4   1    0.18    0.10
  10   4  -1    0.74    0.11
 -10  -4   1    1.16    0.14
   9   4  -1    1.27    0.12
  -9  -4   1    1.23    0.13
   8   4  -1    7.12    0.23
  -8  -4   1    7.01    0.24
   7   4  -1    5.77    0.20
   7   4  -1    5.54    0.17
  -7  -4   1    5.38    0.17
  -7  -4   1    5.61    0.20
   6   4  -1    0.06    0.05
   6   4  -1    0.14    0.05
  -6  -4   1    0.13    0.06
  -6  -4   1    0.11    0.06
   5   4  -1    6.10    0.18
   5   4  -1    6.12    0.14
  -5  -4   1    6.25    0.16
  -5  -4   1    6.51    0.19
   4   4  -1    0.87    0.08
   4   4  -1    0.92    0.06
  -4  -4   1    0.80    0.07
  -4  -4   1    1.04    0.09
   3   4  -1    0.40    0.05
   3   4  -1    0.41    0.05
  -3  -4   1    0.54    0.07
  -3  -4   1    0.58    0.04
   2   4  -1   46.13    0.51
   2   4  -1   44.85    0.51
  -2  -4   1   46.01    0.47
   1   4  -1    3.45    0.11
   1   4  -1    3.37    0.11
  -1  -4   1    3.55    0.10
  -1  -4   1    3.53    0.13
   0   4  -1    7.97    0.18
   0   4  -1    8.18    0.15
   0  -4   1    7.95    0.17
   0  -4   1    7.83    0.19
  -1   4  -1    5.55    0.16
   1  -4   1    5.20    0.15
   1  -4   1    5.43    0.16
  -2   4  -1   43.68    0.56
   2  -4   1   44.33    0.56
   2  -4   1   44.05    0.57
  -3   4  -1    4.48    0.17
   3  -4   1    4.57    0.17
   3  -4   1    4.46    0.17
  -4   4  -1   19.00    0.37
   4  -4   1   18.18    0.37
   4  -4   1   18.51    0.34
  -5   4  -1    3.60    0.19
   5  -4   1    3.83    0.18
   5  -4   1    3.84    0.20
  -6   4  -1    0.52    0.10
   6  -4   1    0.46    0.11
  -7   4  -1    2.57    0.20
   7  -4   1    2.37    0.20
  -8   4  -1    1.27    0.16
   8  -4   1    1.68    0.19
 -11  -3   1    1.42    0.18
  10   3  -1    0.01    0.07
 -10  -3   1   -0.06    0.07
   9   3  -1    2.30    0.15
  -9  -3   1    2.51    0.17
   8   3  -1    0.13    0.07
   8   3  -1    0.07    0.06
  -8  -3   1    0.22    0.07
  -8  -3   1    0.10    0.07
   7   3  -1    0.43    0.07
   7   3  -1    0.44    0.07
  -7  -3   1    0.44    0.08
  -7  -3   1    0.41    0.08
   6   3  -1   12.04    0.23
   6   3  -1   11.99    0.25
  -6  -3   1   11.66    0.23
  -6  -3   1   11.44    0.25
   5   3  -1    0.14    0.05
   5   3  -1    0.02    0.04
  -5  -3   1    0.05    0.05
  -5  -3   1    0.06    0.04
   4   3  -1   38.85    0.41
   4   3  -1   38.44    0.47
  -4  -3   1   38.57    0.45
  -4  -3   1   37.84    0.48
   3   3  -1   22.04    0.25
   3   3  -1   21.37    0.30
  -3  -3   1   22.54    0.29
  -3  -3   1   21.85    0.32
   2   3  -1   12.84    0.19
   2   3  -1   13.00    0.21
  -2  -3   1   13.10    0.23
  -2  -3   1   13.18    0.17
   1   3  -1  172.67    1.53
   1   3  -1  167.89    1.54
  -1  -3   1  172.78    1.58
  -1  -3   1  170.49    1.51
   0   3  -1   33.08    0.39
   0   3  -1   33.03    0.36
   0  -3   1   32.62    0.38
   0  -3   1   32.43    0.40
  -1   3  -1    1.18    0.08
   1  -3   1    1.17    0.09
   1  -3   1    1.07    0.08
  -2   3  -1   19.57    0.31
   2  -3   1   19.52    0.31
   2  -3   1   19.16    0.30
  -3   3  -1    3.21    0.14
   3  -3   1    3.36    0.08
   3  -3   1    3.51    0.14
   3  -3   1    3.28    0.13
  -4   3  -1    3.36    0.15
   4  -3   1    3.32    0.16
   4  -3   1    3.34    0.15
  -5   3  -1    2.90    0.16
   5  -3   1    3.25    0.17
   5  -3   1    2.98    0.15
  -6   3  -1    1.34    0.13
  -6   3  -1    1.15    0.10
   6  -3   1    1.14    0.13
  -7   3  -1    0.35    0.10
   7  -3   1    0.41    0.10
  -8   3  -1    0.20    0.10
   8  -3   1    0.09    0.11
  -9   3  -1    2.05    0.19
   9  -3   1    2.31    0.22
  10   2  -1    0.09    0.10
 -10  -2   1    0.05    0.07
   9   2  -1    1.28    0.11
   9   2  -1    1.50    0.14
  -9  -2   1    1.49    0.13
  -9  -2   1    1.36    0.13
   8   2  -1    1.19    0.12
   8   2  -1    1.26    0.10
  -8  -2   1    1.25    0.11
  -8  -2   1    1.25    0.12
   7   2  -1    8.07    0.22
   7   2  -1    8.51    0.22
  -7  -2   1    8.01    0.22
  -7  -2   1    7.89    0.21
   6   2  -1   11.14    0.23
   6   2  -1   11.14    0.23
  -6  -2   1   11.55    0.23
  -6  -2   1   11.01    0.23
   5   2  -1   30.61    0.40
   5   2  -1   31.00    0.38
  -5  -2   1   29.91    0.41
  -5  -2   1   29.46    0.39
   4   2  -1    0.33    0.04
   4   2  -1    0.26    0.04
  -4  -2   1    0.30    0.05
  -4  -2   1    0.40    0.05
   3   2  -1   27.65    0.30
   3   2  -1   27.72    0.34
  -3  -2   1   27.93    0.33
  -3  -2   1   27.74    0.35
   2   2  -1  158.13    1.37
   2   2  -1  160.58    1.43
  -2  -2   1  161.89    1.43
  -2  -2   1  156.72    1.44
   1   2  -1  225.37    2.00
   1   2  -1  217.99    1.98
  -1  -2   1  218.38    1.95
  -1  -2   1  221.17    2.00
   0   2  -1    0.45    0.03
   0   2  -1    0.54    0.05
   0  -2   1    0.57    0.04
   0  -2   1    0.54    0.05
  -1   2  -1    0.08    0.04
   1  -2   1    0.02    0.03
   1  -2   1    0.08    0.04
  -2   2  -1    1.85    0.09
   2  -2   1    1.90    0.09
   2  -2   1    1.77    0.09
  -3   2  -1  108.84    1.09
   3  -2   1  110.37    0.96
   3  -2   1  110.19    1.08
   3  -2   1  108.49    1.10
   3  -2   1  108.99    0.96
  -4   2  -1    5.02    0.16
   4  -2   1    4.40    0.15
   4  -2   1    4.69    0.17
   4  -2   1    4.59    0.09
   4  -2   1    4.66    0.09
  -5   2  -1    8.92    0.23
  -5   2  -1    8.74    0.21
   5  -2   1    8.36    0.23
  -6   2  -1    8.36    0.22
  -6   2  -1    8.64    0.25
   6  -2   1    8.52    0.26
  -7   2  -1    8.75    0.24
  -7   2  -1    8.85    0.27
   7  -2   1    8.62    0.28
  -8   2  -1   15.02    0.38
   8  -2   1   15.03    0.40
  -9   2  -1    2.68    0.20
   9  -2   1    2.39    0.21
 -10   2  -1    0.19    0.11
  10  -2   1    0.18    0.12
  11   1  -1    0.12    0.11
  10   1  -1    4.85    0.24
 -10  -1   1    5.08    0.23
   9   1  -1    2.90    0.19
  -9  -1   1    2.58    0.17
  -9  -1   1    2.91    0.16
   8   1  -1    3.47    0.15
   8   1  -1    3.48    0.18
  -8  -1   1    3.52    0.17
  -8  -1   1    3.38    0.16
   7   1  -1   24.01    0.40
   7   1  -1   24.30    0.37
  -7  -1   1   23.72    0.38
  -7  -1   1   23.81    0.39
   6   1  -1    0.36    0.06
   6   1  -1    0.43    0.07
   6   1  -1    0.31    0.05
  -6  -1   1    0.38    0.07
  -6  -1   1    0.56    0.07
   5   1  -1    1.21    0.08
   5   1  -1    0.83    0.07
   5   1  -1    0.94    0.08
  -5  -1   1    1.03    0.08
  -5  -1   1    1.21    0.09
   4   1  -1    0.69    0.06
   4   1  -1    0.56    0.05
   4   1  -1    0.68    0.06
  -4  -1   1    0.71    0.06
  -4  -1   1    0.56    0.06
   3   1  -1    0.03    0.03
   3   1  -1    0.10    0.03
   3   1  -1    0.04    0.03
  -3  -1   1    0.04    0.03
  -3  -1   1    0.03    0.04
   2   1  -1   90.06    0.81
   2   1  -1   87.03    0.77
   2   1  -1   88.68    0.81
  -2  -1   1   86.40    0.81
  -2  -1   1   86.85    0.81
   1   1  -1    0.71    0.05
   1   1  -1    0.72    0.05
  -1  -1   1    0.64    0.05
   0   1  -1   11.24    0.15
   0   1  -1   11.31    0.13
   0  -1   1   10.99    0.16
   0  -1   1   11.17    0.13
  -1   1  -1    0.04    0.03
   1  -1   1   -0.02    0.03
   1  -1   1    0.03    0.03
  -2   1  -1    0.04    0.03
   2  -1   1    0.00    0.01
   2  -1   1   -0.02    0.04
   2  -1   1    0.01    0.01
   2  -1   1    0.01    0.03
  -3   1  -1   27.33    0.35
   3  -1   1   27.09    0.36
   3  -1   1   26.99    0.27
   3  -1   1   27.26    0.27
   3  -1   1   27.10    0.35
  -4   1  -1   53.89    0.61
  -4   1  -1   52.72    0.59
   4  -1   1   53.70    0.64
   4  -1   1   53.07    0.51
   4  -1   1   53.84    0.51
  -5   1  -1    3.12    0.13
  -5   1  -1    3.07    0.12
   5  -1   1    2.89    0.14
   5  -1   1    2.81    0.08
   5  -1   1    3.05    0.08
  -6   1  -1    4.77    0.18
  -6   1  -1    4.93    0.17
  -7   1  -1    1.86    0.14
  -7   1  -1    1.75    0.13
   7  -1   1    1.99    0.16
  -8   1  -1    4.01    0.20
  -8   1  -1    4.41    0.18
   8  -1   1    4.30    0.22
  -9   1  -1    0.72    0.12
   9  -1   1    0.56    0.13
 -10   1  -1    0.56    0.12
  10  -1   1    0.49    0.14
  11   0  -1    0.18    0.11
  10   0  -1    0.67    0.13
 -10   0   1    0.63    0.12
   9   0  -1    0.35    0.11
  -9   0   1    0.49    0.10
   8   0  -1    8.09    0.26
  -8   0   1    8.36    0.25
  -8   0   1    8.42    0.23
   7   0  -1   -0.05    0.04
   7   0  -1   -0.08    0.04
   7   0  -1    0.08    0.06
  -7   0   1    0.04    0.05
  -7   0   1    0.03    0.06
   6   0  -1    6.16    0.16
   6   0  -1    6.53    0.16
   6   0  -1    6.54    0.19
  -6   0   1    6.55    0.17
  -6   0   1    6.40    0.19
   5   0  -1    4.60    0.13
   5   0  -1    4.45    0.12
   5   0  -1    4.61    0.15
  -5   0   1    4.41    0.13
  -5   0   1    4.42    0.15
   4   0  -1    0.00    0.04
   4   0  -1    0.02    0.03
   4   0  -1   -0.01    0.03
  -4   0   1    0.02    0.03
  -4   0   1    0.02    0.04
   3   0  -1    1.72    0.08
   3   0  -1    1.56    0.07
   3   0  -1    1.65    0.07
  -3   0   1    1.80    0.08
  -3   0   1    1.69    0.07
   2   0  -1   34.89    0.36
   2   0  -1   35.05    0.36
   2   0  -1   34.45    0.35
  -2   0   1   34.33    0.37
  -2   0   1   34.49    0.35
   1   0  -1   56.00    0.51
   1   0  -1   55.89    0.51
   1   0  -1   55.26    0.50
  -1   0   1   55.53    0.50
   0   0  -1   -0.02    0.02
   0   0   1    0.01    0.03
   0   0   1    0.01    0.02
   0   0   1   -0.01    0.03
  -1   0  -1    2.08    0.05
  -2   0  -1    0.51    0.04
   2   0   1    0.55    0.03
   2   0   1    0.49    0.05
  -3   0  -1   29.78    0.35
  -3   0  -1   29.35    0.35
   3   0   1   30.37    0.30
   3   0   1   30.03    0.37
  -4   0  -1    0.35    0.05
  -4   0  -1    0.29    0.05
   4   0   1    0.27    0.03
   4   0   1    0.20    0.05
  -5   0  -1    5.34    0.15
  -5   0  -1    5.40    0.15
   5   0   1    5.49    0.17
   5   0   1    5.39    0.12
  -6   0  -1    7.16    0.20
  -6   0  -1    7.33    0.20
   6   0   1    7.41    0.15
   6   0   1    7.47    0.22
  -7   0  -1    0.16    0.07
  -7   0  -1    0.21    0.07
   7   0   1   -0.02    0.07
  -8   0  -1    0.02    0.07
  -8   0  -1    0.06    0.07
   8   0   1    0.09    0.08
  -9   0  -1    0.30    0.09
  -9   0  -1    0.21    0.09
   9   0   1    0.30    0.11
 -10   0  -1    3.26    0.25
  10   0   1    2.36    0.21
  11   0   1    0.96    0.17
  10  -1  -1    2.85    0.22
 -10   1   1    2.89    0.22
   9  -1  -1    6.53    0.27
  -9   1   1    6.19    0.26
   8  -1  -1    0.59    0.11
  -8   1   1    0.43    0.10
   7  -1  -1    0.06    0.07
  -7   1   1    0.00    0.07
  -7   1   1    0.05    0.05
   6  -1  -1    2.54    0.11
   6  -1  -1    2.66    0.15
   6  -1  -1    2.63    0.11
  -6   1   1    2.50    0.14
  -6   1   1    2.34    0.11
   5  -1  -1   18.24    0.32
   5  -1  -1   18.01    0.27
   5  -1  -1   17.96    0.26
  -5   1   1   17.90    0.32
  -5   1   1   17.85    0.27
   4  -1  -1  101.75    0.97
   4  -1  -1  101.58    1.02
   4  -1  -1  102.17    0.97
  -4   1   1  100.62    1.02
  -4   1   1  101.54    0.96
   3  -1  -1   49.20    0.54
   3  -1  -1   48.87    0.50
   3  -1  -1   48.59    0.50
  -3   1   1   49.73    0.49
  -3   1   1   49.02    0.54
   2  -1  -1   40.04    0.41
   2  -1  -1   39.92    0.43
   2  -1  -1   40.03    0.41
  -2   1   1   39.81    0.43
  -2   1   1   39.45    0.38
   1  -1  -1   39.29    0.39
   1  -1  -1   39.28    0.38
  -1   1   1   38.65    0.39
  -1   1   1   39.13    0.35
   0  -1  -1    0.99    0.04
   0  -1  -1    0.97    0.06
   0   1   1    1.07    0.05
  -1  -1  -1   14.93    0.17
   1   1   1   15.16    0.18
   1   1   1   14.63    0.17
  -2  -1  -1  114.43    1.00
  -2  -1  -1  114.97    1.04
   2   1   1  114.72    1.01
  -3  -1  -1   35.25    0.37
  -3  -1  -1   35.81    0.40
   3   1   1   35.83    0.37
   3   1   1   35.20    0.41
  -4  -1  -1  120.02    1.16
  -4  -1  -1  120.96    1.12
   4   1   1  121.71    1.11
   4   1   1  120.95    1.17
  -5  -1  -1    0.24    0.05
  -5  -1  -1    0.26    0.05
   5   1   1    0.27    0.04
  -6  -1  -1    2.86    0.12
  -6  -1  -1    3.20    0.14
   6   1   1    2.93    0.11
   6   1   1    2.91    0.15
  -7  -1  -1    0.81    0.09
  -7  -1  -1    0.95    0.10
   7   1   1    0.82    0.07
   7   1   1    0.75    0.10
  -8  -1  -1   29.04    0.46
  -8  -1  -1   28.22    0.47
   8   1   1   28.72    0.50
  -9  -1  -1    3.30    0.18
  -9  -1  -1    3.83    0.19
   9   1   1    3.87    0.22
 -10  -1  -1   -0.02    0.08
  10   1   1   -0.07    0.09
  11   1   1   -0.14    0.10
  10  -2  -1    0.65    0.14
 -10   2   1    0.55    0.13
   9  -2  -1    0.12    0.11
  -9   2   1   -0.18    0.08
   8  -2  -1    3.20    0.20
  -8   2   1    3.23    0.20
   7  -2  -1    4.43    0.21
  -7   2   1    4.46    0.21
   6  -2  -1    6.52    0.19
   6  -2  -1    6.06    0.22
   6  -2  -1    6.51    0.19
  -6   2   1    6.26    0.17
  -6   2   1    6.14    0.21
   5  -2  -1    8.93    0.24
   5  -2  -1    8.49    0.17
   5  -2  -1    8.68    0.17
  -5   2   1    8.57    0.22
  -5   2   1    8.32    0.18
   4  -2  -1   15.42    0.29
   4  -2  -1   15.54    0.23
   4  -2  -1   15.57    0.23
  -4   2   1   15.55    0.23
  -4   2   1   15.99    0.28
   3  -2  -1   49.49    0.51
   3  -2  -1   49.71    0.57
  -3   2   1   48.93    0.57
  -3   2   1   49.64    0.50
   2  -2  -1    5.79    0.11
   2  -2  -1    5.82    0.10
   2  -2  -1    5.68    0.14
  -2   2   1    5.44    0.13
   1  -2  -1    3.34    0.10
   1  -2  -1    3.38    0.07
  -1   2   1    3.39    0.09
   0  -2  -1    5.03    0.10
   0  -2  -1    4.88    0.08
   0   2   1    5.02    0.09
  -1  -2  -1  103.40    0.92
   1   2   1  104.96    0.94
   1   2   1  101.33    0.93
   1   2   1  102.54    0.92
  -2  -2  -1  191.56    2.25
  -2  -2  -1  192.68    1.65
   2   2   1  188.61    1.85
   2   2   1  196.67    1.70
  -3  -2  -1   99.71    0.95
  -3  -2  -1   99.24    0.88
   3   2   1   99.75    0.93
   3   2   1  100.50    0.95
  -4  -2  -1    5.68    0.14
  -4  -2  -1    6.08    0.11
   4   2   1    5.66    0.13
   4   2   1    5.78    0.15
  -5  -2  -1    7.02    0.18
  -5  -2  -1    6.81    0.14
   5   2   1    6.70    0.18
   5   2   1    6.76    0.15
  -6  -2  -1    3.97    0.13
  -6  -2  -1    4.31    0.15
   6   2   1    4.19    0.16
   6   2   1    4.15    0.13
  -7  -2  -1    3.96    0.16
  -7  -2  -1    3.72    0.14
   7   2   1    3.65    0.17
   7   2   1    3.77    0.14
  -8  -2  -1    0.03    0.07
  -8  -2  -1    0.01    0.06
   8   2   1    0.13    0.08
   8   2   1    0.07    0.05
  -9  -2  -1    1.12    0.12
   9   2   1    1.49    0.15
 -10  -2  -1   -0.03    0.08
  10   2   1    0.16    0.10
 -11  -2  -1    1.96    0.18
  11   2   1    2.20    0.20
   9  -3  -1    0.13    0.11
  -9   3   1    0.27    0.11
   8  -3  -1    5.82    0.27
  -8   3   1    5.53    0.26
   7  -3  -1    3.09    0.20
  -7   3   1    2.65    0.18
   6  -3  -1    0.58    0.10
  -6   3   1    0.49    0.10
   5  -3  -1    0.02    0.07
   5  -3  -1    0.11    0.04
   5  -3  -1    0.02    0.04
  -5   3   1    0.06    0.06
  -5   3   1    0.11    0.05
   4  -3  -1    0.59    0.08
   4  -3  -1    0.62    0.05
   4  -3  -1    0.66    0.06
  -4   3   1    0.66    0.06
  -4   3   1    0.78    0.09
   3  -3  -1    2.87    0.09
   3  -3  -1    2.70    0.10
   3  -3  -1    2.87    0.13
  -3   3   1    2.89    0.12
   2  -3  -1    4.83    0.14
   2  -3  -1    4.81    0.11
  -2   3   1    4.77    0.14
   1  -3  -1   61.91    0.59
   1  -3  -1   60.41    0.64
  -1   3   1   60.93    0.63
   0  -3  -1   50.78    0.53
   0  -3  -1   50.80    0.50
   0   3   1   50.37    0.51
  -1  -3  -1  139.96    1.26
  -1  -3  -1  139.97    1.25
   1   3   1  137.10    1.26
   1   3   1  136.76    1.23
  -2  -3  -1   29.94    0.35
   2   3   1   29.75    0.35
   2   3   1   29.40    0.34
   2   3   1   30.22    0.29
  -3  -3  -1    4.73    0.08
  -3  -3  -1    4.72    0.13
   3   3   1    4.65    0.12
   3   3   1    4.74    0.12
  -4  -3  -1   13.46    0.17
  -4  -3  -1   13.77    0.24
   4   3   1   13.81    0.23
   4   3   1   13.52    0.22
  -5  -3  -1   12.06    0.24
  -5  -3  -1   12.39    0.19
   5   3   1   12.61    0.24
   5   3   1   12.91    0.23
  -6  -3  -1   35.79    0.42
  -6  -3  -1   34.92    0.49
   6   3   1   36.43    0.47
   6   3   1   35.57    0.49
  -7  -3  -1    0.07    0.06
  -7  -3  -1    0.18    0.05
   7   3   1    0.21    0.07
   7   3   1    0.16    0.05
  -8  -3  -1    2.68    0.16
   8   3   1    2.25    0.16
   8   3   1    2.35    0.13
  -9  -3  -1   15.24    0.35
   9   3   1   14.82    0.32
   9   3   1   14.33    0.35
 -10  -3  -1    3.51    0.20
  10   3   1    3.75    0.22
 -11  -3  -1    2.93    0.21
  11   3   1    3.04    0.23
   9  -4  -1    5.98    0.31
  -9   4   1    4.92    0.29
   8  -4  -1    3.24    0.24
  -8   4   1    3.07    0.23
   7  -4  -1    0.83    0.14
  -7   4   1    0.54    0.12
   6  -4  -1    4.48    0.22
  -6   4   1    4.48    0.22
   5  -4  -1    3.77    0.19
  -5   4   1    3.82    0.19
   4  -4  -1   17.21    0.33
   4  -4  -1   17.21    0.35
   4  -4  -1   17.16    0.27
  -4   4   1   17.47    0.34
   3  -4  -1    9.14    0.18
   3  -4  -1    8.89    0.23
   3  -4  -1    9.05    0.18
  -3   4   1    8.76    0.22
   2  -4  -1   46.46    0.58
   2  -4  -1   46.61    0.51
  -2   4   1   46.56    0.57
   1  -4  -1   23.80    0.35
   1  -4  -1   23.45    0.30
  -1   4   1   23.55    0.33
   0  -4  -1    8.37    0.17
   0  -4  -1    8.37    0.16
   0   4   1    8.32    0.16
  -1  -4  -1   44.58    0.49
  -1  -4  -1   44.00    0.49
   1   4   1   45.51    0.50
   1   4   1   44.05    0.47
  -2  -4  -1    5.07    0.12
  -2  -4  -1    5.09    0.13
   2   4   1    5.06    0.13
   2   4   1    5.10    0.10
  -3  -4  -1   44.26    0.52
   3   4   1   43.93    0.49
   3   4   1   45.65    0.43
   3   4   1   44.02    0.51
  -4  -4  -1   72.68    0.79
  -4  -4  -1   73.49    0.68
   4   4   1   72.05    0.77
   4   4   1   72.73    0.76
  -5  -4  -1    0.67    0.08
  -5  -4  -1    0.62    0.05
   5   4   1    0.60    0.07
   5   4   1    0.53    0.06
  -6  -4  -1    3.74    0.11
  -6  -4  -1    4.12    0.16
   6   4   1    4.10    0.15
   6   4   1    4.12    0.15
  -7  -4  -1    2.59    0.15
   7   4   1    2.77    0.14
   7   4   1    2.74    0.15
  -8  -4  -1    6.32    0.22
   8   4   1    7.00    0.23
   8   4   1    6.53    0.21
  -9  -4  -1    2.96    0.18
   9   4   1    3.00    0.16
   9   4   1    2.67    0.18
 -10  -4  -1    0.15    0.09
  10   4   1    0.05    0.09
 -11  -4  -1    0.03    0.10
 -12  -4  -1    0.01    0.10
   8  -5  -1    0.07    0.12
  -8   5   1    0.01    0.11
   7  -5  -1    2.16    0.20
  -7   5   1    2.24    0.20
   6  -5  -1    3.65    0.22
  -6   5   1    4.17    0.22
   5  -5  -1    2.07    0.18
  -5   5   1    1.94    0.16
   4  -5  -1    1.83    0.15
  -4   5   1    1.50    0.13
   3  -5  -1   12.06    0.30
   3  -5  -1   11.68    0.29
  -3   5   1   12.20    0.28
   2  -5  -1    6.51    0.20
   2  -5  -1    6.47    0.16
  -2   5   1    6.34    0.19
   1  -5  -1    0.06    0.05
   1  -5  -1    0.11    0.05
  -1   5   1    0.12    0.05
   0  -5  -1   12.67    0.24
   0  -5  -1   12.70    0.23
   0   5   1   12.57    0.23
  -1  -5  -1   22.76    0.33
  -1  -5  -1   23.15    0.33
   1   5   1   23.23    0.31
  -2  -5  -1  102.12    1.00
  -2  -5  -1  101.59    1.02
   2   5   1  101.49    0.96
   2   5   1  102.13    1.02
  -3  -5  -1    9.52    0.19
  -3  -5  -1    9.26    0.21
   3   5   1    9.39    0.15
   3   5   1    9.59    0.21
  -4  -5  -1   13.10    0.26
   4   5   1   12.76    0.23
   4   5   1   13.17    0.25
   4   5   1   13.16    0.18
  -5  -5  -1    2.63    0.08
   5   5   1    2.64    0.13
   5   5   1    2.82    0.12
  -6  -5  -1    7.84    0.23
   6   5   1    7.49    0.20
   6   5   1    7.63    0.21
  -7  -5  -1    2.28    0.15
   7   5   1    2.15    0.13
   7   5   1    2.19    0.14
  -8  -5  -1    0.45    0.09
   8   5   1    0.20    0.08
   8   5   1    0.20    0.07
  -9  -5  -1    0.51    0.11
   9   5   1    0.57    0.11
   9   5   1    0.78    0.10
 -10  -5  -1    0.47    0.11
  10   5   1    0.71    0.10
 -11  -5  -1    0.06    0.10
 -12  -5  -1    2.50    0.21
   7  -6  -1    0.04    0.11
  -7   6   1    0.05    0.11
   6  -6  -1    0.11    0.11
  -6   6   1    0.30    0.11
   5  -6  -1    0.44    0.11
  -5   6   1    0.66    0.12
   4  -6  -1    2.43    0.19
  -4   6   1    2.42    0.17
   3  -6  -1    8.99    0.27
  -3   6   1    9.25    0.26
   2  -6  -1    0.32    0.08
   2  -6  -1    0.45    0.09
  -2   6   1    0.37    0.08
   1  -6  -1    0.37    0.07
   1  -6  -1    0.47    0.08
  -1   6   1    0.42    0.07
   0  -6  -1    1.95    0.12
   0  -6  -1    1.69    0.12
   0   6   1    2.09    0.11
  -1  -6  -1    1.38    0.11
  -1  -6  -1    1.45    0.11
   1   6   1    1.33    0.09
  -2  -6  -1    1.36    0.10
  -2  -6  -1    1.07    0.09
   2   6   1    1.19    0.08
   2   6   1    1.09    0.09
  -3  -6  -1   25.93    0.40
  -3  -6  -1   26.34    0.37
   3   6   1   26.31    0.33
   3   6   1   25.55    0.39
  -4  -6  -1   -0.03    0.05
  -4  -6  -1    0.03    0.04
   4   6   1   -0.01    0.05
   4   6   1    0.10    0.03
  -5  -6  -1    3.84    0.17
   5   6   1    4.02    0.16
   5   6   1    4.27    0.15
  -6  -6  -1    0.57    0.09
   6   6   1    0.55    0.08
   6   6   1    0.58    0.08
  -7  -6  -1   25.44    0.46
   7   6   1   25.34    0.41
   7   6   1   25.19    0.44
  -8  -6  -1    1.27    0.13
   8   6   1    1.67    0.13
   8   6   1    1.74    0.14
  -9  -6  -1    0.41    0.11
   9   6   1    0.34    0.09
 -10  -6  -1    0.26    0.11
  10   6   1    0.23    0.09
 -11  -6  -1    0.12    0.11
  11   6   1    0.08    0.08
   6  -7  -1    1.10    0.17
  -6   7   1    1.10    0.16
   5  -7  -1    0.10    0.11
  -5   7   1    0.10    0.10
   4  -7  -1    4.91    0.25
  -4   7   1    5.00    0.23
   3  -7  -1   11.46    0.33
  -3   7   1   11.76    0.32
   2  -7  -1    0.10    0.08
  -2   7   1    0.18    0.08
   1  -7  -1    0.49    0.10
   1  -7  -1    0.54    0.10
  -1   7   1    0.73    0.10
   0  -7  -1    0.98    0.10
   0  -7  -1    1.07    0.10
   0   7   1    1.25    0.11
  -1  -7  -1    8.10    0.22
  -1  -7  -1    8.31    0.22
   1   7   1    8.27    0.20
  -2  -7  -1    0.40    0.07
  -2  -7  -1    0.56    0.09
   2   7   1    0.47    0.07
   2   7   1    0.46    0.06
  -3  -7  -1    3.68    0.17
  -3  -7  -1    3.57    0.14
   3   7   1    3.28    0.12
   3   7   1    3.47    0.16
  -4  -7  -1    1.23    0.09
  -4  -7  -1    1.44    0.12
   4   7   1    1.08    0.10
  -5  -7  -1    1.19    0.10
  -5  -7  -1    0.94    0.11
   5   7   1    0.86    0.10
  -6  -7  -1    1.64    0.11
  -6  -7  -1    1.47    0.14
   6   7   1    1.14    0.11
  -7  -7  -1    5.13    0.23
   7   7   1    5.46    0.21
  -8  -7  -1    2.26    0.18
   8   7   1    2.08    0.16
  -9  -7  -1   -0.08    0.08
   9   7   1    0.05    0.07
 -10  -7  -1    5.02    0.27
  10   7   1    5.04    0.24
 -11  -7  -1    0.02    0.11
  11   7   1    0.24    0.09
   5  -8  -1    0.25    0.12
  -5   8   1    0.08    0.10
   4  -8  -1   -0.09    0.10
  -4   8   1   -0.07    0.09
   3  -8  -1    2.91    0.21
  -3   8   1    2.77    0.19
   2  -8  -1   -0.12    0.08
  -2   8   1    0.12    0.08
   1  -8  -1    2.92    0.19
  -1   8   1    2.83    0.16
   0  -8  -1    9.48    0.31
   0  -8  -1   10.12    0.28
   0   8   1   10.39    0.27
  -1  -8  -1    2.12    0.15
  -1  -8  -1    2.04    0.14
   1   8   1    1.91    0.13
  -2  -8  -1   -0.07    0.06
  -2  -8  -1   -0.04    0.07
   2   8   1   -0.02    0.05
  -3  -8  -1    3.29    0.18
  -3  -8  -1    3.20    0.15
   3   8   1    3.26    0.17
  -4  -8  -1    2.48    0.14
  -4  -8  -1    2.91    0.17
   4   8   1    2.63    0.16
  -5  -8  -1    6.95    0.21
  -5  -8  -1    7.39    0.26
   5   8   1    7.24    0.24
  -6  -8  -1   21.25    0.44
   6   8   1   21.25    0.42
  -7  -8  -1    0.19    0.10
   7   8   1    0.20    0.08
  -8  -8  -1    2.48    0.19
   8   8   1    2.31    0.18
  -9  -8  -1    0.44    0.12
   9   8   1    0.46    0.10
 -10  -8  -1    0.07    0.11
  10   8   1   -0.09    0.07
 -11  -8  -1    0.38    0.13
  11   8   1    0.44    0.11
   4  -9  -1    0.10    0.11
  -4   9   1    0.07    0.10
   3  -9  -1    0.13    0.11
  -3   9   1    0.15    0.10
   2  -9  -1    0.77    0.14
  -2   9   1    0.87    0.13
   1  -9  -1    0.26    0.10
  -1   9   1    0.31    0.09
   0  -9  -1   -0.01    0.08
   0   9   1    0.01    0.06
  -1  -9  -1    3.41    0.19
  -1  -9  -1    3.19    0.26
   1   9   1    3.32    0.17
  -2  -9  -1    2.26    0.16
  -2  -9  -1    2.40    0.18
  -3  -9  -1    0.04    0.07
  -3  -9  -1   -0.02    0.08
  -4  -9  -1    7.31    0.26
   4   9   1    7.27    0.26
  -5  -9  -1    5.12    0.24
   5   9   1    5.46    0.23
  -6  -9  -1   -0.03    0.09
   6   9   1    0.09    0.08
  -7  -9  -1    0.52    0.13
   7   9   1    0.43    0.10
  -8  -9  -1    0.46    0.13
   8   9   1    0.39    0.10
  -9  -9  -1    2.56    0.22
   9   9   1    3.10    0.21
 -10  -9  -1   -0.01    0.11
  10   9   1    0.03    0.08
   2 -10  -1    0.04    0.10
  -2  10   1    0.19    0.10
   1 -10  -1    1.94    0.19
  -1  10   1    1.79    0.17
   0 -10  -1    4.86    0.24
   0  10   1    4.82    0.22
  -1 -10  -1    2.00    0.17
  -2 -10  -1    2.29    0.20
  -3 -10  -1   -0.01    0.09
  -4 -10  -1    3.26    0.22
   4  10   1    3.37    0.21
  -5 -10  -1    0.12    0.10
   5  10   1    0.22    0.09
  -6 -10  -1    1.05    0.15
   6  10   1    1.02    0.13
  -7 -10  -1   -0.04    0.10
   7  10   1    0.00    0.08
  -8 -10  -1   -0.12    0.10
   8  10   1    0.02    0.08
  -9 -10  -1   -0.18    0.11
   9  10   1    0.24    0.10
   0 -11  -1   -0.02    0.17
  -4 -11  -1    0.02    0.10
  -5 -11  -1    1.14    0.16
   5  11   1    0.86    0.13
  -6 -11  -1    0.00    0.11
   6  11   1    0.16    0.10
  -7 -11  -1    0.00    0.11
   7  11   1    0.01    0.09
  -8 -11  -1    0.27    0.13
   8  11   1    0.09    0.10
  -5 -12  -1    0.03    0.11
   5  11  -2    0.08    0.09
  -5 -11   2   -0.01    0.12
  -4 -11   2    0.44    0.14
   8  10  -2    0.48    0.12
  -8 -10   2    0.23    0.14
   7  10  -2   -0.03    0.09
  -7 -10   2    0.06    0.14
   6  10  -2    1.77    0.16
  -6 -10   2    2.06    0.21
   5  10  -2    2.79    0.21
  -5 -10   2    2.60    0.22
   4  10  -2    0.13    0.09
  -4 -10   2    0.21    0.13
  -3 -10   2    0.54    0.14
   2  10  -2    0.00    0.09
  -2 -10   2   -0.01    0.10
   1  10  -2    0.09    0.09
  -1 -10   2    0.18    0.12
   0  10  -2   -0.02    0.09
   9   9  -2    0.12    0.10
  -9  -9   2    0.41    0.14
   8   9  -2    0.00    0.09
  -8  -9   2    0.16    0.12
   7   9  -2    0.13    0.09
  -7  -9   2   -0.09    0.10
   6   9  -2    0.11    0.08
  -6  -9   2    0.17    0.12
   5   9  -2    0.49    0.10
  -5  -9   2    0.65    0.13
   4   9  -2    2.23    0.17
  -4  -9   2    2.70    0.22
   3   9  -2    3.45    0.19
   3   9  -2    3.28    0.18
  -3  -9   2    3.24    0.23
   2   9  -2    0.08    0.08
  -2  -9   2    0.04    0.10
   1   9  -2    1.58    0.15
  -1  -9   2    1.28    0.16
   0   9  -2    0.67    0.12
   0  -9   2    0.41    0.12
  -1   9  -2    0.07    0.09
  -2   9  -2    0.02    0.09
  10   8  -2    0.54    0.12
 -10  -8   2    0.45    0.14
   9   8  -2    0.06    0.09
  -9  -8   2    0.19    0.12
   8   8  -2    0.02    0.08
  -8  -8   2   -0.01    0.10
   7   8  -2    0.34    0.10
  -7  -8   2    0.16    0.11
   6   8  -2    2.02    0.16
  -6  -8   2    1.90    0.18
   5   8  -2    0.25    0.08
  -5  -8   2    0.33    0.11
   4   8  -2    5.64    0.20
   4   8  -2    5.57    0.22
  -4  -8   2    5.56    0.25
   3   8  -2    0.27    0.08
   3   8  -2    0.15    0.07
  -3  -8   2    0.27    0.10
   2   8  -2    1.48    0.13
   2   8  -2    1.55    0.12
  -2  -8   2    1.79    0.17
   1   8  -2    3.51    0.18
  -1  -8   2    3.64    0.21
   0   8  -2    5.96    0.23
   0  -8   2    5.60    0.25
  -1   8  -2    0.01    0.08
   1  -8   2    0.02    0.09
   1  -8   2   -0.12    0.06
  -2   8  -2    1.72    0.16
   2  -8   2    1.74    0.16
  -3   8  -2    0.86    0.14
   3  -8   2    1.04    0.15
  -4   8  -2    1.61    0.18
   4  -8   2    1.31    0.17
  11   7  -2    1.34    0.16
 -11  -7   2    1.07    0.17
  10   7  -2    0.12    0.09
 -10  -7   2   -0.11    0.10
   9   7  -2    3.86    0.23
  -9  -7   2    3.30    0.23
   8   7  -2    1.70    0.15
  -8  -7   2    1.69    0.17
   7   7  -2    0.32    0.09
  -7  -7   2    0.68    0.12
   6   7  -2    0.11    0.08
  -6  -7   2    0.06    0.09
   5   7  -2    1.53    0.13
   5   7  -2    1.44    0.11
  -5  -7   2    1.51    0.15
   4   7  -2   14.45    0.29
   4   7  -2   14.71    0.32
  -4  -7   2   14.19    0.36
   3   7  -2    1.48    0.12
   3   7  -2    1.38    0.11
  -3  -7   2    1.36    0.14
   2   7  -2    0.60    0.09
   2   7  -2    0.50    0.07
  -2  -7   2    0.58    0.11
   1   7  -2    2.10    0.13
   1   7  -2    2.15    0.14
  -1  -7   2    2.05    0.16
  -1  -7   2    2.30    0.15
   0   7  -2    3.10    0.17
   0  -7   2    3.58    0.20
   0  -7   2    3.62    0.17
  -1   7  -2   11.13    0.30
   1  -7   2   10.62    0.31
   1  -7   2   10.75    0.28
  -2   7  -2    4.23    0.22
   2  -7   2    3.90    0.19
   2  -7   2    3.98    0.22
  -3   7  -2    0.76    0.13
   3  -7   2    0.59    0.12
  -4   7  -2    4.88    0.25
   4  -7   2    4.72    0.25
  -5   7  -2    0.17    0.10
   5  -7   2    0.01    0.10
  11   6  -2    1.51    0.16
 -11  -6   2    1.78    0.19
  10   6  -2    0.91    0.13
 -10  -6   2    1.06    0.15
   9   6  -2    5.26    0.24
  -9  -6   2    5.58    0.26
   8   6  -2    1.08    0.12
  -8  -6   2    1.62    0.16
   7   6  -2    8.90    0.27
  -7  -6   2    8.99    0.29
   6   6  -2    6.73    0.23
  -6  -6   2    6.26    0.20
  -6  -6   2    6.50    0.24
   5   6  -2    5.99    0.21
   5   6  -2    6.41    0.18
  -5  -6   2    6.32    0.23
   4   6  -2    2.53    0.14
   4   6  -2    2.42    0.12
  -4  -6   2    2.52    0.16
   3   6  -2    3.54    0.15
   3   6  -2    3.62    0.14
  -3  -6   2    3.60    0.18
   2   6  -2    2.35    0.12
   2   6  -2    2.40    0.13
  -2  -6   2    2.40    0.10
  -2  -6   2    2.49    0.16
   1   6  -2   -0.02    0.05
   1   6  -2    0.00    0.04
  -1  -6   2    0.07    0.05
  -1  -6   2    0.00    0.07
   0   6  -2    3.89    0.14
   0   6  -2    3.86    0.17
   0  -6   2    4.02    0.16
   0  -6   2    4.14    0.20
  -1   6  -2    0.89    0.11
   1  -6   2    0.71    0.11
   1  -6   2    0.72    0.09
  -2   6  -2   12.24    0.31
   2  -6   2   12.29    0.32
   2  -6   2   12.34    0.30
  -3   6  -2    0.11    0.09
   3  -6   2    0.21    0.09
   3  -6   2    0.07    0.08
  -4   6  -2    3.88    0.21
   4  -6   2    3.48    0.21
  -5   6  -2    0.60    0.12
   5  -6   2    0.70    0.13
  -6   6  -2    0.28    0.12
   6  -6   2    0.35    0.12
  11   5  -2   -0.09    0.08
 -11  -5   2   -0.07    0.09
  10   5  -2    0.09    0.08
 -10  -5   2    0.10    0.09
   9   5  -2   -0.05    0.07
  -9  -5   2    0.04    0.08
   8   5  -2    6.56    0.24
  -8  -5   2    6.72    0.25
   7   5  -2    0.75    0.10
  -7  -5   2    0.79    0.10
  -7  -5   2    0.75    0.11
   6   5  -2   29.16    0.47
  -6  -5   2   29.77    0.44
  -6  -5   2   28.16    0.48
   5   5  -2   37.41    0.52
  -5  -5   2   35.61    0.54
  -5  -5   2   36.50    0.49
   4   5  -2    2.08    0.11
   4   5  -2    2.14    0.13
  -4  -5   2    2.31    0.14
   3   5  -2   45.63    0.56
   3   5  -2   45.06    0.55
  -3  -5   2   45.05    0.47
  -3  -5   2   45.34    0.61
   2   5  -2   47.72    0.56
   2   5  -2   47.67    0.57
  -2  -5   2   47.57    0.63
  -2  -5   2   46.85    0.51
   1   5  -2    7.29    0.17
   1   5  -2    7.67    0.19
  -1  -5   2    7.42    0.17
  -1  -5   2    7.65    0.22
   0   5  -2    6.25    0.15
   0   5  -2    6.17    0.18
   0  -5   2    5.92    0.16
   0  -5   2    5.94    0.20
  -1   5  -2    1.49    0.12
   1  -5   2    1.23    0.12
   1  -5   2    1.48    0.11
  -2   5  -2   11.26    0.28
   2  -5   2   11.72    0.27
   2  -5   2   11.29    0.28
  -3   5  -2    5.08    0.21
   3  -5   2    5.46    0.21
   3  -5   2    5.27    0.21
  -4   5  -2    0.12    0.08
   4  -5   2    0.26    0.09
   4  -5   2    0.22    0.09
  -5   5  -2    0.43    0.11
   5  -5   2    0.44    0.11
  -6   5  -2    0.09    0.10
   6  -5   2   -0.01    0.09
  -7   5  -2   10.38    0.36
   7  -5   2   10.93    0.38
  11   4  -2    1.67    0.15
 -11  -4   2    1.58    0.17
  10   4  -2    0.14    0.08
 -10  -4   2    0.22    0.09
   9   4  -2    0.22    0.08
  -9  -4   2    0.18    0.09
   8   4  -2   15.85    0.35
  -8  -4   2   15.33    0.36
  -8  -4   2   15.63    0.35
   7   4  -2   20.64    0.38
  -7  -4   2   20.97    0.39
  -7  -4   2   20.67    0.36
   6   4  -2    0.03    0.05
  -6  -4   2   -0.01    0.06
  -6  -4   2    0.04    0.06
   5   4  -2    0.06    0.05
  -5  -4   2    0.13    0.06
  -5  -4   2    0.10    0.06
   4   4  -2    2.88    0.13
  -4  -4   2    2.76    0.07
  -4  -4   2    2.76    0.14
  -4  -4   2    2.87    0.13
   3   4  -2   57.09    0.65
  -3  -4   2   57.43    0.55
  -3  -4   2   58.63    0.65
  -3  -4   2   57.06    0.69
   2   4  -2   31.83    0.41
   2   4  -2   32.38    0.41
  -2  -4   2   31.80    0.45
  -2  -4   2   31.66    0.35
   1   4  -2    0.34    0.05
   1   4  -2    0.33    0.06
  -1  -4   2    0.26    0.07
  -1  -4   2    0.34    0.04
   0   4  -2   16.56    0.23
   0   4  -2   16.19    0.28
   0  -4   2   15.97    0.30
   0  -4   2   15.93    0.25
  -1   4  -2    5.33    0.17
   1  -4   2    5.56    0.16
   1  -4   2    5.35    0.18
  -2   4  -2   30.50    0.45
   2  -4   2   30.60    0.46
   2  -4   2   29.21    0.44
  -3   4  -2    0.33    0.07
   3  -4   2    0.25    0.08
   3  -4   2    0.21    0.07
  -4   4  -2    1.53    0.13
   4  -4   2    1.67    0.14
   4  -4   2    1.52    0.13
  -5   4  -2   27.51    0.50
   5  -4   2   28.04    0.51
   5  -4   2   27.09    0.48
  -6   4  -2    1.64    0.16
   6  -4   2    1.04    0.13
  -7   4  -2    0.39    0.11
   7  -4   2    0.41    0.12
  -8   4  -2    0.64    0.13
   8  -4   2    0.64    0.14
  11   3  -2    0.08    0.08
  10   3  -2    0.33    0.09
 -10  -3   2    0.60    0.11
   9   3  -2    0.05    0.06
  -9  -3   2    0.08    0.07
  -9  -3   2    0.08    0.12
   8   3  -2    6.48    0.22
  -8  -3   2    7.04    0.23
  -8  -3   2    7.13    0.22
   7   3  -2    0.72    0.09
   7   3  -2    0.72    0.12
  -7  -3   2    0.71    0.09
  -7  -3   2    0.75    0.09
   6   3  -2    5.63    0.14
   6   3  -2    5.30    0.18
  -6  -3   2    5.66    0.18
  -6  -3   2    6.20    0.19
   5   3  -2   16.64    0.29
   5   3  -2   16.72    0.23
  -5  -3   2   16.12    0.30
  -5  -3   2   16.33    0.28
   4   3  -2   84.11    0.77
   4   3  -2   85.27    0.88
  -4  -3   2   84.11    0.90
  -4  -3   2   83.34    0.87
   3   3  -2    5.85    0.15
  -3  -3   2    5.57    0.16
  -3  -3   2    5.57    0.15
  -3  -3   2    5.59    0.08
   2   3  -2  132.34    1.23
  -2  -3   2  131.94    1.15
  -2  -3   2  132.71    1.28
  -2  -3   2  131.65    1.26
   1   3  -2    4.89    0.13
   1   3  -2    4.56    0.11
  -1  -3   2    4.80    0.10
  -1  -3   2    4.51    0.14
   0   3  -2   27.51    0.31
   0   3  -2   27.05    0.36
   0  -3   2   27.17    0.38
   0  -3   2   26.72    0.33
  -1   3  -2    2.83    0.07
  -1   3  -2    2.83    0.12
   1  -3   2    2.86    0.11
   1  -3   2    2.97    0.13
  -2   3  -2    1.22    0.09
   2  -3   2    1.02    0.09
   2  -3   2    1.30    0.09
  -3   3  -2    0.26    0.07
   3  -3   2    0.27    0.07
   3  -3   2    0.22    0.07
  -4   3  -2    2.80    0.15
   4  -3   2    2.66    0.15
   4  -3   2    2.89    0.15
  -5   3  -2   14.89    0.33
   5  -3   2   14.93    0.32
   5  -3   2   14.67    0.34
  -6   3  -2   16.47    0.37
  -6   3  -2   16.66    0.34
   6  -3   2   16.57    0.39
  -7   3  -2    1.51    0.15
   7  -3   2    1.44    0.15
  -8   3  -2    5.29    0.26
   8  -3   2    5.19    0.27
  -9   3  -2    0.17    0.10
   9  -3   2    0.17    0.12
  10   2  -2    7.34    0.25
   9   2  -2    5.56    0.21
  -9  -2   2    5.49    0.22
  -9  -2   2    5.66    0.21
   8   2  -2    3.10    0.16
   8   2  -2    3.09    0.16
  -8  -2   2    2.93    0.15
  -8  -2   2    2.94    0.16
   7   2  -2    0.81    0.09
   7   2  -2    0.80    0.09
  -7  -2   2    0.64    0.09
  -7  -2   2    0.87    0.09
   6   2  -2    0.03    0.04
   6   2  -2    0.03    0.04
   6   2  -2    0.04    0.05
  -6  -2   2   -0.01    0.04
  -6  -2   2    0.07    0.06
   5   2  -2   11.67    0.20
   5   2  -2   11.71    0.23
   5   2  -2   11.63    0.23
  -5  -2   2   12.01    0.23
  -5  -2   2   11.81    0.23
   4   2  -2    0.75    0.07
   4   2  -2    0.76    0.07
   4   2  -2    0.70    0.05
  -4  -2   2    0.75    0.07
  -4  -2   2    0.61    0.07
   3   2  -2   75.95    0.68
   3   2  -2   77.16    0.77
   3   2  -2   75.65    0.77
  -3  -2   2   77.07    0.78
  -3  -2   2   74.80    0.78
   2   2  -2   42.42    0.46
   2   2  -2   42.23    0.46
  -2  -2   2   43.08    0.48
  -2  -2   2   42.01    0.48
   1   2  -2   65.56    0.67
   1   2  -2   67.68    0.64
  -1  -2   2   66.06    0.69
  -1  -2   2   67.42    0.60
  -1  -2   2   66.47    0.68
   0   2  -2    2.11    0.06
   0   2  -2    2.08    0.09
   0  -2   2    2.10    0.07
   0  -2   2    2.13    0.10
  -1   2  -2   31.21    0.30
  -1   2  -2   30.96    0.38
   1  -2   2   30.97    0.40
   1  -2   2   30.58    0.37
  -2   2  -2   36.02    0.45
   2  -2   2   35.04    0.44
   2  -2   2   35.47    0.46
  -3   2  -2   65.64    0.73
   3  -2   2   65.70    0.75
   3  -2   2   66.69    0.75
  -4   2  -2   34.60    0.48
   4  -2   2   33.58    0.48
  -5   2  -2    9.41    0.24
   5  -2   2    9.45    0.25
   5  -2   2    9.39    0.25
  -6   2  -2    0.38    0.09
  -6   2  -2    0.46    0.08
   6  -2   2    0.36    0.09
  -7   2  -2    4.60    0.21
  -7   2  -2    4.64    0.19
   7  -2   2    4.87    0.23
  -8   2  -2    2.32    0.18
   8  -2   2    2.46    0.20
  -9   2  -2    0.22    0.11
   9  -2   2    0.06    0.11
 -10  -1   2    1.08    0.14
   9   1  -2    4.60    0.19
   9   1  -2    4.83    0.21
  -9  -1   2    4.65    0.22
   8   1  -2    5.54    0.19
   8   1  -2    5.54    0.19
   8   1  -2    5.80    0.21
  -8  -1   2    5.34    0.21
  -8  -1   2    5.46    0.19
   7   1  -2   20.43    0.35
   7   1  -2   20.70    0.35
   7   1  -2   20.18    0.35
  -7  -1   2   20.27    0.37
  -7  -1   2   20.53    0.35
   6   1  -2    2.41    0.12
   6   1  -2    2.36    0.12
   6   1  -2    2.23    0.12
  -6  -1   2    2.39    0.13
  -6  -1   2    2.48    0.12
   5   1  -2   35.41    0.45
   5   1  -2   35.24    0.45
   5   1  -2   35.16    0.43
  -5  -1   2   35.06    0.46
  -5  -1   2   35.22    0.44
   4   1  -2   11.05    0.18
   4   1  -2   10.89    0.20
   4   1  -2   10.97    0.20
  -4  -1   2   10.74    0.19
  -4  -1   2   11.15    0.21
   3   1  -2    0.65    0.05
   3   1  -2    0.67    0.04
   3   1  -2    0.56    0.05
  -3  -1   2    0.62    0.05
  -3  -1   2    0.71    0.06
   2   1  -2   16.55    0.22
   2   1  -2   16.71    0.22
   2   1  -2   16.34    0.16
  -2  -1   2   16.93    0.24
  -2  -1   2   16.69    0.23
   1   1  -2  212.03    1.82
   1   1  -2  213.69    1.82
  -1  -1   2  195.35    1.84
  -1  -1   2  214.34    1.85
   0   1  -2   14.28    0.16
   0   1  -2   14.34    0.16
   0  -1   2   14.04    0.21
   0  -1   2   13.80    0.17
  -1   1  -2  106.05    0.99
  -1   1  -2  106.49    0.90
   1  -1   2  102.84    0.97
   1  -1   2  106.29    1.01
  -2   1  -2    4.36    0.12
   2  -1   2    4.21    0.12
   2  -1   2    4.32    0.13
  -3   1  -2  180.60    1.67
   3  -1   2  180.17    1.69
   3  -1   2  182.96    1.70
  -4   1  -2    0.58    0.07
   4  -1   2    0.42    0.07
   4  -1   2    0.55    0.07
  -5   1  -2    0.74    0.08
   5  -1   2    0.93    0.10
  -6   1  -2    7.82    0.22
  -6   1  -2    8.01    0.22
   6  -1   2    7.33    0.24
  -7   1  -2   12.03    0.30
  -7   1  -2   12.46    0.29
   7  -1   2   12.17    0.33
  -8   1  -2    9.76    0.29
  -8   1  -2    9.58    0.27
   8  -1   2    9.48    0.31
  -9   1  -2    0.68    0.12
   9  -1   2    0.60    0.13
 -10   1  -2    0.38    0.11
  10  -1   2    0.37    0.13
 -11   0   2    1.04    0.15
  10   0  -2    1.97    0.18
 -10   0   2    1.65    0.17
   9   0  -2    4.89    0.22
  -9   0   2    4.88    0.22
   8   0  -2    1.00    0.09
   8   0  -2    0.97    0.09
   8   0  -2    1.11    0.12
  -8   0   2    1.12    0.12
   7   0  -2    0.19    0.06
   7   0  -2    0.06    0.05
   7   0  -2    0.10    0.07
  -7   0   2    0.15    0.05
  -7   0   2    0.06    0.07
   6   0  -2    0.97    0.08
   6   0  -2    0.96    0.09
   6   0  -2    0.89    0.08
  -6   0   2    1.04    0.08
  -6   0   2    1.05    0.10
   5   0  -2   63.67    0.69
   5   0  -2   64.08    0.69
   5   0  -2   63.79    0.69
  -5   0   2   62.43    0.72
  -5   0   2   63.09    0.67
   4   0  -2   22.28    0.31
   4   0  -2   22.02    0.30
   4   0  -2   21.64    0.30
  -4   0   2   21.96    0.32
  -4   0   2   21.94    0.28
   3   0  -2    8.69    0.15
   3   0  -2    8.57    0.16
   3   0  -2    8.37    0.16
  -3   0   2    8.43    0.14
  -3   0   2    8.31    0.17
   2   0  -2   86.69    0.82
   2   0  -2   86.40    0.78
   2   0  -2   87.29    0.82
  -2   0   2   87.59    0.80
  -2   0   2   85.97    0.83
   1   0  -2  163.64    1.42
   1   0  -2  160.86    1.44
   1   0  -2  161.27    1.41
  -1   0   2  157.73    1.45
  -1   0   2  159.40    1.43
   0   0  -2  243.25    2.19
   0   0  -2  246.05    2.20
   0   0   2  243.61    2.16
   0   0   2  245.49    2.22
   0   0   2  242.93    2.14
  -1   0  -2   13.49    0.18
  -1   0  -2   13.38    0.14
   1   0   2   13.34    0.18
   1   0   2   13.35    0.20
  -2   0  -2   11.68    0.17
   2   0   2   11.56    0.20
   2   0   2   11.32    0.19
  -3   0  -2   11.00    0.18
   3   0   2   11.00    0.21
   3   0   2   11.20    0.13
   3   0   2   11.16    0.21
  -4   0  -2    1.29    0.09
  -4   0  -2    1.36    0.08
   4   0   2    1.36    0.05
   4   0   2    1.30    0.10
  -5   0  -2   27.26    0.39
  -5   0  -2   27.27    0.38
   5   0   2   26.53    0.30
   5   0   2   26.43    0.42
  -6   0  -2   35.80    0.49
  -6   0  -2   36.47    0.51
   6   0   2   36.36    0.54
  -7   0  -2   10.58    0.26
  -7   0  -2   10.92    0.27
   7   0   2   10.77    0.30
  -8   0  -2   12.44    0.30
  -8   0  -2   12.18    0.30
   8   0   2   12.47    0.35
  -9   0  -2    3.04    0.19
  -9   0  -2    2.79    0.18
   9   0   2    2.98    0.22
  10   0   2   -0.06    0.10
  10  -1  -2    0.61    0.13
 -10   1   2    0.29    0.11
   9  -1  -2    0.30    0.11
  -9   1   2    0.19    0.10
   8  -1  -2    1.56    0.14
  -8   1   2    1.51    0.14
   7  -1  -2    3.60    0.18
   7  -1  -2    4.23    0.15
   7  -1  -2    4.21    0.15
  -7   1   2    4.32    0.19
   6  -1  -2   35.20    0.51
   6  -1  -2   35.43    0.46
   6  -1  -2   35.64    0.46
  -6   1   2   36.08    0.52
  -6   1   2   35.21    0.45
   5  -1  -2    1.31    0.09
   5  -1  -2    1.20    0.09
   5  -1  -2    1.33    0.09
  -5   1   2    1.26    0.07
  -5   1   2    1.26    0.10
   4  -1  -2    8.01    0.17
   4  -1  -2    8.25    0.18
   4  -1  -2    7.88    0.17
  -4   1   2    7.93    0.14
  -4   1   2    7.94    0.19
   3  -1  -2   34.86    0.41
   3  -1  -2   35.12    0.41
   3  -1  -2   35.13    0.41
  -3   1   2   35.11    0.43
  -3   1   2   35.87    0.36
   2  -1  -2   69.06    0.66
   2  -1  -2   67.11    0.66
   2  -1  -2   66.96    0.66
  -2   1   2   69.24    0.61
  -2   1   2   66.34    0.68
   1  -1  -2    1.01    0.06
   1  -1  -2    1.13    0.06
  -1   1   2    1.06    0.03
   0   1   2  383.43    3.51
   0   1   2  395.50    3.49
   0   1   2  388.80    3.54
   1   1   2   31.23    0.34
   1   1   2   31.07    0.31
   1   1   2   31.65    0.33
  -2  -1  -2    4.71    0.09
  -2  -1  -2    4.68    0.11
   2   1   2    4.61    0.09
   2   1   2    4.62    0.12
  -3  -1  -2   30.35    0.33
  -3  -1  -2   30.01    0.37
   3   1   2   30.16    0.38
   3   1   2   29.49    0.31
  -4  -1  -2  159.22    1.44
  -4  -1  -2  158.20    1.49
   4   1   2  158.48    1.50
   4   1   2  156.55    1.41
  -5  -1  -2    0.39    0.06
  -5  -1  -2    0.35    0.05
   5   1   2    0.34    0.06
   5   1   2    0.41    0.04
  -6  -1  -2    7.25    0.20
  -6  -1  -2    7.14    0.18
   6   1   2    7.25    0.22
   6   1   2    6.95    0.15
  -7  -1  -2    5.81    0.18
  -7  -1  -2    5.89    0.20
   7   1   2    5.91    0.22
  -8  -1  -2   -0.04    0.06
  -8  -1  -2    0.06    0.07
   8   1   2    0.05    0.08
  -9  -1  -2    8.68    0.27
   9   1   2    8.58    0.31
 -10  -1  -2   -0.02    0.08
  10   1   2    0.13    0.11
  11   1   2    6.71    0.32
  10  -2  -2    0.18    0.11
 -10   2   2    0.11    0.11
   9  -2  -2    0.42    0.12
  -9   2   2    0.70    0.13
   8  -2  -2    1.26    0.14
  -8   2   2    1.19    0.14
   7  -2  -2    0.71    0.11
  -7   2   2    0.64    0.10
   6  -2  -2   -0.02    0.04
   6  -2  -2   -0.08    0.07
   6  -2  -2    0.08    0.05
  -6   2   2   -0.02    0.07
   5  -2  -2    0.03    0.06
   5  -2  -2   -0.01    0.04
   5  -2  -2    0.03    0.04
  -5   2   2   -0.03    0.06
  -5   2   2    0.00    0.03
   4  -2  -2    6.13    0.18
   4  -2  -2    5.96    0.15
   4  -2  -2    6.22    0.15
  -4   2   2    6.18    0.12
  -4   2   2    6.53    0.18
   3  -2  -2   21.60    0.29
   3  -2  -2   21.33    0.31
  -3   2   2   21.61    0.24
  -3   2   2   21.35    0.32
   2  -2  -2  223.80    1.98
   2  -2  -2  223.07    2.00
  -2   2   2  223.22    2.00
  -2   2   2  222.39    1.93
   1  -2  -2  990.42    8.96
  -1   2   2 1000.00    8.96
   0  -2  -2  964.14    8.76
   0  -2  -2  991.51    9.43
   0   2   2  986.49    8.64
  -1  -2  -2   45.27    0.44
   1   2   2   45.98    0.41
   1   2   2   44.74    0.47
  -2  -2  -2  174.14    1.54
  -2  -2  -2  166.52    1.48
   2   2   2  173.48    1.53
   2   2   2  175.74    1.56
  -3  -2  -2   38.34    0.36
  -3  -2  -2   37.72    0.44
   3   2   2   37.79    0.41
   3   2   2   37.67    0.44
  -4  -2  -2    9.86    0.20
  -4  -2  -2   10.04    0.15
   4   2   2    9.76    0.17
   4   2   2    9.73    0.20
  -5  -2  -2   38.97    0.43
  -5  -2  -2   37.89    0.49
   5   2   2   38.18    0.44
   5   2   2   37.53    0.50
  -6  -2  -2   18.66    0.28
  -6  -2  -2   17.51    0.32
   6   2   2   18.15    0.34
   6   2   2   17.64    0.27
  -7  -2  -2    6.95    0.18
  -7  -2  -2    7.43    0.22
   7   2   2    7.23    0.17
   7   2   2    7.25    0.23
  -8  -2  -2    0.85    0.11
  -8  -2  -2    1.21    0.14
   8   2   2    0.95    0.12
  -9  -2  -2    1.07    0.12
   9   2   2    0.80    0.12
 -10  -2  -2    0.06    0.08
  10   2   2    0.10    0.10
 -11  -2  -2    1.36    0.16
  11   2   2    1.16    0.17
   9  -3  -2    4.73    0.26
  -9   3   2    4.96    0.26
   8  -3  -2    3.84    0.23
  -8   3   2    3.66    0.22
   7  -3  -2    4.76    0.22
  -7   3   2    4.89    0.23
   6  -3  -2    0.13    0.08
  -6   3   2    0.18    0.08
   5  -3  -2   14.43    0.26
   5  -3  -2   14.60    0.26
   5  -3  -2   13.97    0.31
  -5   3   2   14.19    0.31
   4  -3  -2   20.39    0.30
   4  -3  -2   20.23    0.30
  -4   3   2   21.14    0.36
  -4   3   2   20.40    0.26
   3  -3  -2   13.18    0.26
   3  -3  -2   12.97    0.22
  -3   3   2   13.16    0.17
  -3   3   2   12.95    0.25
   2  -3  -2   28.06    0.38
   2  -3  -2   27.67    0.28
  -2   3   2   27.88    0.37
   1  -3  -2  152.83    1.32
   1  -3  -2  151.80    1.41
  -1   3   2  152.08    1.40
   0  -3  -2    0.12    0.03
   0  -3  -2    0.11    0.04
   0   3   2    0.06    0.03
  -1  -3  -2  167.61    1.52
  -1  -3  -2  170.44    1.49
   1   3   2  166.44    1.48
  -2  -3  -2   84.36    0.81
   2   3   2   85.28    0.83
   2   3   2   84.48    0.82
  -3  -3  -2    1.56    0.08
   3   3   2    1.52    0.08
   3   3   2    1.62    0.09
  -4  -3  -2    7.91    0.11
  -4  -3  -2    7.67    0.18
   4   3   2    7.97    0.18
   4   3   2    7.93    0.16
  -5  -3  -2   70.23    0.78
  -5  -3  -2   70.07    0.67
   5   3   2   71.06    0.79
   5   3   2   71.23    0.74
  -6  -3  -2    0.01    0.04
  -6  -3  -2    0.13    0.06
   6   3   2    0.03    0.04
   6   3   2    0.01    0.06
  -7  -3  -2    0.75    0.10
   7   3   2    0.69    0.07
   7   3   2    0.68    0.10
  -8  -3  -2    5.51    0.21
   8   3   2    5.79    0.18
   8   3   2    5.72    0.23
  -9  -3  -2    2.28    0.17
   9   3   2    2.48    0.18
 -10  -3  -2    0.02    0.08
  10   3   2   -0.02    0.09
 -11  -3  -2    0.01    0.09
  11   3   2   -0.13    0.10
   9  -4  -2    0.67    0.15
  -9   4   2    0.56    0.14
   8  -4  -2   -0.05    0.10
  -8   4   2   -0.03    0.09
   7  -4  -2    0.96    0.14
  -7   4   2    0.95    0.14
   6  -4  -2    4.61    0.22
  -6   4   2    5.11    0.22
   5  -4  -2    4.13    0.20
  -5   4   2    4.16    0.19
   4  -4  -2   39.90    0.49
   4  -4  -2   40.54    0.57
  -4   4   2   39.74    0.57
   3  -4  -2    0.77    0.06
   3  -4  -2    0.90    0.10
   3  -4  -2    0.77    0.07
  -3   4   2    0.87    0.09
   2  -4  -2    0.78    0.06
   2  -4  -2    0.66    0.07
  -2   4   2    0.79    0.08
   1  -4  -2    6.98    0.17
   1  -4  -2    6.87    0.12
  -1   4   2    7.13    0.16
   0  -4  -2  109.76    1.07
   0  -4  -2  110.29    1.01
   0   4   2  109.37    1.04
  -1  -4  -2    0.49    0.05
  -1  -4  -2    0.48    0.06
   1   4   2    0.49    0.04
  -2  -4  -2    0.16    0.04
  -2  -4  -2    0.17    0.04
   2   4   2    0.20    0.02
   2   4   2    0.13    0.04
  -3  -4  -2    7.31    0.16
   3   4   2    7.03    0.17
   3   4   2    7.10    0.16
  -4  -4  -2   -0.02    0.04
   4   4   2   -0.01    0.04
   4   4   2   -0.04    0.03
  -5  -4  -2   31.91    0.32
  -5  -4  -2   32.17    0.45
   5   4   2   32.16    0.43
   5   4   2   32.21    0.45
  -6  -4  -2   23.37    0.39
   6   4   2   22.85    0.38
   6   4   2   23.17    0.36
  -7  -4  -2   19.00    0.37
   7   4   2   19.93    0.38
   7   4   2   19.95    0.34
  -8  -4  -2    0.06    0.07
   8   4   2    0.05    0.07
   8   4   2   -0.02    0.05
  -9  -4  -2    4.36    0.21
   9   4   2    4.21    0.18
   9   4   2    4.40    0.22
 -10  -4  -2    0.76    0.13
  10   4   2    1.01    0.14
 -11  -4  -2    0.06    0.09
  11   4   2    0.15    0.11
   8  -5  -2   -0.05    0.10
  -8   5   2    0.00    0.10
   7  -5  -2    0.45    0.12
  -7   5   2    0.16    0.10
   6  -5  -2    6.40    0.27
  -6   5   2    6.58    0.26
   5  -5  -2    4.68    0.22
  -5   5   2    4.54    0.21
   4  -5  -2    0.92    0.09
   4  -5  -2    1.24    0.13
  -4   5   2    0.98    0.11
   3  -5  -2    1.01    0.11
   3  -5  -2    0.90    0.07
  -3   5   2    0.88    0.10
   2  -5  -2    1.74    0.13
   2  -5  -2    1.78    0.09
  -2   5   2    1.71    0.11
   1  -5  -2   19.11    0.27
   1  -5  -2   19.80    0.33
  -1   5   2   19.83    0.32
   0  -5  -2   23.84    0.31
   0  -5  -2   23.94    0.36
   0   5   2   23.95    0.33
  -1  -5  -2   28.09    0.38
  -1  -5  -2   28.09    0.36
   1   5   2   27.96    0.34
  -2  -5  -2   33.96    0.43
  -2  -5  -2   33.41    0.42
   2   5   2   33.81    0.44
   2   5   2   33.00    0.36
  -3  -5  -2   36.67    0.45
  -3  -5  -2   36.63    0.46
   3   5   2   36.51    0.36
   3   5   2   36.77    0.47
  -4  -5  -2    8.71    0.21
   4   5   2    8.86    0.20
   4   5   2    8.85    0.20
  -5  -5  -2    5.46    0.18
   5   5   2    5.85    0.17
   5   5   2    5.45    0.17
  -6  -5  -2    0.60    0.09
   6   5   2    0.43    0.07
   6   5   2    0.46    0.08
  -7  -5  -2    0.03    0.07
   7   5   2    0.04    0.07
   7   5   2    0.04    0.05
  -8  -5  -2    0.81    0.11
   8   5   2    0.97    0.10
   8   5   2    0.75    0.11
  -9  -5  -2    3.23    0.19
   9   5   2    3.10    0.17
   9   5   2    3.02    0.20
 -10  -5  -2    0.31    0.10
  10   5   2    0.44    0.09
  10   5   2    0.35    0.11
 -11  -5  -2    0.52    0.13
  11   5   2    0.49    0.14
   7  -6  -2    0.58    0.14
  -7   6   2    0.73    0.14
   6  -6  -2    0.02    0.10
  -6   6   2    0.05    0.09
   5  -6  -2    6.13    0.27
  -5   6   2    5.84    0.25
   4  -6  -2    1.56    0.14
  -4   6   2    2.10    0.16
   3  -6  -2    0.34    0.09
  -3   6   2    0.58    0.10
   2  -6  -2    1.76    0.14
  -2   6   2    1.43    0.12
   1  -6  -2    2.33    0.11
   1  -6  -2    2.21    0.14
  -1   6   2    2.32    0.12
   0  -6  -2    7.36    0.17
   0  -6  -2    7.03    0.20
   0   6   2    7.27    0.18
  -1  -6  -2    0.49    0.07
  -1  -6  -2    0.66    0.07
   1   6   2    0.54    0.06
  -2  -6  -2    0.76    0.08
  -2  -6  -2    0.60    0.07
   2   6   2    0.82    0.06
  -3  -6  -2    8.65    0.20
  -3  -6  -2    8.58    0.21
   3   6   2    8.49    0.21
   3   6   2    8.64    0.15
  -4  -6  -2    6.37    0.19
  -4  -6  -2    6.64    0.18
   4   6   2    6.35    0.19
  -5  -6  -2   -0.06    0.05
   5   6   2    0.06    0.06
   5   6   2    0.02    0.05
  -6  -6  -2    0.79    0.10
   6   6   2    0.86    0.09
   6   6   2    0.81    0.10
  -7  -6  -2    7.20    0.24
   7   6   2    7.35    0.23
   7   6   2    7.21    0.23
  -8  -6  -2   16.64    0.38
   8   6   2   16.16    0.35
   8   6   2   16.47    0.35
  -9  -6  -2    0.08    0.08
   9   6   2   -0.07    0.08
   9   6   2   -0.01    0.06
 -10  -6  -2    3.56    0.23
  10   6   2    3.84    0.19
 -11  -6  -2   -0.12    0.09
   6  -7  -2    0.54    0.14
  -6   7   2    0.62    0.13
   5  -7  -2    0.14    0.11
  -5   7   2   -0.01    0.09
   4  -7  -2   -0.01    0.09
  -4   7   2   -0.06    0.07
   3  -7  -2    5.62    0.24
  -3   7   2    5.58    0.23
   2  -7  -2    0.34    0.09
  -2   7   2    0.22    0.08
   1  -7  -2   11.15    0.29
  -1   7   2   11.19    0.27
   0  -7  -2    5.16    0.17
   0  -7  -2    5.10    0.19
   0   7   2    5.44    0.18
  -1  -7  -2   20.78    0.34
  -1  -7  -2   20.86    0.36
   1   7   2   20.02    0.32
  -2  -7  -2   11.96    0.26
  -2  -7  -2   12.27    0.26
   2   7   2   12.19    0.22
  -3  -7  -2   13.26    0.28
  -3  -7  -2   13.21    0.27
   3   7   2   13.45    0.22
   3   7   2   13.68    0.29
  -4  -7  -2    2.97    0.13
  -4  -7  -2    3.20    0.16
   4   7   2    2.98    0.15
  -5  -7  -2    2.35    0.13
  -5  -7  -2    2.10    0.15
   5   7   2    2.29    0.14
  -6  -7  -2    2.17    0.16
   6   7   2    2.09    0.15
   6   7   2    2.09    0.14
  -7  -7  -2    1.57    0.14
   7   7   2    1.27    0.12
   7   7   2    1.81    0.14
  -8  -7  -2    0.92    0.13
   8   7   2    1.04    0.12
   8   7   2    1.06    0.11
  -9  -7  -2    2.19    0.18
   9   7   2    2.28    0.17
 -10  -7  -2    1.93    0.19
  10   7   2    1.35    0.14
 -11  -7  -2    0.10    0.11
  11   7   2   -0.04    0.07
   5  -8  -2    0.13    0.12
  -5   8   2    0.41    0.12
   4  -8  -2   -0.13    0.10
  -4   8   2    0.03    0.08
   3  -8  -2    1.09    0.15
  -3   8   2    1.11    0.13
   2  -8  -2    0.17    0.10
  -2   8   2    0.42    0.10
   1  -8  -2   -0.03    0.08
  -1   8   2    0.11    0.07
   0  -8  -2   -0.04    0.07
   0   8   2    0.10    0.06
  -1  -8  -2    4.66    0.18
  -1  -8  -2    4.72    0.19
   1   8   2    4.78    0.17
  -2  -8  -2    2.81    0.16
  -2  -8  -2    2.78    0.16
   2   8   2    2.88    0.12
  -3  -8  -2    1.39    0.11
  -3  -8  -2    1.40    0.12
  -4  -8  -2    0.54    0.10
  -4  -8  -2    0.53    0.08
   4   8   2    0.57    0.09
  -5  -8  -2   15.88    0.36
  -5  -8  -2   15.91    0.31
   5   8   2   15.94    0.35
  -6  -8  -2   11.55    0.31
  -6  -8  -2   10.92    0.26
   6   8   2   11.40    0.30
  -7  -8  -2    0.03    0.06
  -7  -8  -2    0.08    0.09
   7   8   2    0.11    0.08
   7   8   2    0.07    0.07
  -8  -8  -2    0.96    0.14
   8   8   2    0.88    0.11
  -9  -8  -2    0.37    0.11
   9   8   2    0.59    0.11
 -10  -8  -2    1.19    0.16
  10   8   2    1.01    0.13
 -11  -8  -2    0.18    0.12
  11   8   2    0.18    0.09
   4  -9  -2   -0.03    0.11
  -4   9   2   -0.04    0.09
   3  -9  -2    0.13    0.12
  -3   9   2   -0.07    0.09
   2  -9  -2    4.07    0.24
  -2   9   2    4.05    0.22
   1  -9  -2    0.23    0.10
  -1   9   2    0.33    0.09
   0  -9  -2    0.73    0.12
   0   9   2    0.49    0.09
  -1  -9  -2    0.84    0.11
   1   9   2    0.88    0.10
  -2  -9  -2    0.32    0.09
  -2  -9  -2    0.21    0.08
  -3  -9  -2    1.07    0.11
  -3  -9  -2    1.33    0.13
  -4  -9  -2   14.29    0.31
  -4  -9  -2   13.89    0.34
   4   9   2   13.96    0.34
  -5  -9  -2    1.09    0.11
  -5  -9  -2    1.10    0.13
   5   9   2    0.96    0.12
  -6  -9  -2    1.30    0.15
   6   9   2    1.56    0.14
  -7  -9  -2    0.18    0.10
   7   9   2    0.05    0.07
  -8  -9  -2    1.09    0.15
   8   9   2    1.15    0.14
  -9  -9  -2    0.34    0.13
   9   9   2    0.26    0.09
 -10  -9  -2    3.22    0.25
  10   9   2    3.32    0.23
   3 -10  -2   -0.10    0.11
  -3  10   2   -0.14    0.09
   2 -10  -2    0.24    0.12
  -2  10   2    0.23    0.10
   1 -10  -2   -0.03    0.10
  -1  10   2    0.07    0.08
   0 -10  -2    0.54    0.12
   0  10   2    0.62    0.11
  -1 -10  -2    0.08    0.09
  -2 -10  -2    0.26    0.10
  -3 -10  -2    1.22    0.13
  -3 -10  -2    1.38    0.15
  -4 -10  -2   -0.11    0.09
  -4 -10  -2    0.03    0.10
  -5 -10  -2    0.00    0.09
   5  10   2    0.18    0.09
  -6 -10  -2   -0.09    0.09
   6  10   2    0.12    0.09
  -7 -10  -2    0.15    0.10
   7  10   2    0.13    0.09
  -8 -10  -2    0.11    0.11
   8  10   2   -0.03    0.08
  -9 -10  -2    1.67    0.19
   9  10   2    1.45    0.15
 -10 -10  -2   -0.06    0.12
  10  10   2    0.06    0.09
   1 -11  -2    0.21    0.12
   0 -11  -2    0.72    0.14
  -1 -11  -2    1.16    0.16
  -2 -11  -2    0.38    0.12
  -4 -11  -2    0.15    0.11
  -5 -11  -2    0.16    0.11
  -6 -11  -2    0.25    0.11
   6  11   2    0.05    0.09
  -7 -11  -2   -0.03    0.10
   7  11   2   -0.02    0.09
  -8 -11  -2    0.23    0.12
   8  11   2   -0.01    0.09
  -6 -12  -2    0.20    0.12
   7  10  -3    0.10    0.10
  -7 -10   3    0.18    0.15
   6  10  -3    0.50    0.11
  -6 -10   3    0.65    0.16
   5  10  -3    3.03    0.22
  -5 -10   3    2.90    0.25
  -4 -10   3    0.00    0.11
  -3 -10   3    0.67    0.15
   2  10  -3   -0.08    0.08
  -2 -10   3    0.00    0.12
   1  10  -3    0.22    0.11
  -1 -10   3    0.21    0.13
   9   9  -3    2.14    0.22
  -9  -9   3    2.66    0.36
   8   9  -3   -0.02    0.09
  -8  -9   3    0.09    0.13
   7   9  -3    1.12    0.14
  -7  -9   3    1.18    0.18
   6   9  -3    1.37    0.15
  -6  -9   3    1.25    0.18
   5   9  -3    2.48    0.18
  -5  -9   3    2.43    0.21
   4   9  -3    0.20    0.08
  -4  -9   3    0.23    0.12
   3   9  -3    0.70    0.12
  -3  -9   3    0.57    0.14
   2   9  -3    1.53    0.15
  -2  -9   3    1.28    0.17
   1   9  -3    2.73    0.19
  -1  -9   3    2.28    0.20
   0   9  -3   -0.19    0.08
   0  -9   3    0.07    0.11
  -1   9  -3    0.05    0.10
  -2   9  -3    1.55    0.18
  10   8  -3   -0.07    0.11
 -10  -8   3   -0.18    0.10
   9   8  -3    0.08    0.10
  -9  -8   3    0.04    0.11
   8   8  -3    1.19    0.14
  -8  -8   3    1.36    0.17
   7   8  -3    0.11    0.09
  -7  -8   3    0.16    0.11
   6   8  -3    0.43    0.10
  -6  -8   3    0.45    0.13
   5   8  -3    2.85    0.19
  -5  -8   3    2.45    0.20
   4   8  -3    5.02    0.20
   4   8  -3    4.95    0.22
  -4  -8   3    5.07    0.26
   3   8  -3    5.24    0.21
   3   8  -3    4.94    0.20
  -3  -8   3    5.32    0.26
   2   8  -3    5.19    0.22
  -2  -8   3    4.92    0.26
   1   8  -3    5.55    0.24
  -1  -8   3    5.03    0.27
   0   8  -3    0.02    0.08
   0  -8   3    0.02    0.10
  -1   8  -3    0.26    0.10
   1  -8   3    0.06    0.11
  -2   8  -3    0.43    0.12
   2  -8   3    0.72    0.20
  -3   8  -3    1.51    0.17
   3  -8   3    1.68    0.27
  10   7  -3    0.14    0.11
 -10  -7   3    0.18    0.11
   9   7  -3    1.09    0.14
  -9  -7   3    1.16    0.16
   8   7  -3    0.66    0.12
  -8  -7   3    0.86    0.14
   7   7  -3    0.16    0.08
  -7  -7   3    0.38    0.11
   6   7  -3    0.00    0.07
  -6  -7   3   -0.04    0.09
   5   7  -3    0.13    0.07
   5   7  -3    0.19    0.07
  -5  -7   3    0.27    0.10
   4   7  -3    0.49    0.09
   4   7  -3    0.57    0.09
  -4  -7   3    0.55    0.11
   3   7  -3    9.43    0.26
   3   7  -3    9.27    0.25
  -3  -7   3    9.18    0.30
   2   7  -3    0.49    0.09
   2   7  -3    0.54    0.08
  -2  -7   3    0.47    0.11
   1   7  -3    0.96    0.11
  -1  -7   3    1.08    0.13
   0   7  -3   27.89    0.49
   0  -7   3   26.74    0.52
  -1   7  -3    1.30    0.14
   1  -7   3    1.50    0.15
   1  -7   3    1.37    0.16
  -2   7  -3    4.78    0.23
   2  -7   3    5.04    0.21
   2  -7   3    4.72    0.24
  -3   7  -3    4.92    0.24
   3  -7   3    5.13    0.23
   3  -7   3    4.93    0.26
  -4   7  -3    0.39    0.12
   4  -7   3    0.34    0.11
  -5   7  -3    2.05    0.21
   5  -7   3    2.73    0.22
  11   6  -3    0.08    0.09
 -11  -6   3    0.10    0.11
  10   6  -3    0.66    0.12
 -10  -6   3    0.74    0.14
   9   6  -3    1.18    0.14
  -9  -6   3    1.40    0.16
   8   6  -3    1.10    0.13
  -8  -6   3    1.21    0.15
   7   6  -3    0.30    0.09
  -7  -6   3    0.37    0.10
   6   6  -3    5.98    0.22
  -6  -6   3    5.93    0.21
  -6  -6   3    5.86    0.24
   5   6  -3    2.95    0.17
   5   6  -3    2.97    0.15
  -5  -6   3    2.93    0.19
   4   6  -3    1.72    0.12
   4   6  -3    1.63    0.12
  -4  -6   3    1.47    0.14
   3   6  -3    5.53    0.18
   3   6  -3    5.39    0.19
  -3  -6   3    5.33    0.22
   2   6  -3   16.48    0.30
   2   6  -3   16.81    0.33
  -2  -6   3   16.31    0.37
   1   6  -3    1.02    0.11
   1   6  -3    0.88    0.08
  -1  -6   3    1.20    0.13
   0   6  -3    1.23    0.12
   0  -6   3    1.20    0.13
   0  -6   3    1.39    0.11
  -1   6  -3    0.15    0.08
   1  -6   3    0.17    0.09
   1  -6   3    0.19    0.07
  -2   6  -3   31.54    0.54
   2  -6   3   31.67    0.56
   2  -6   3   30.83    0.51
  -3   6  -3    1.64    0.16
   3  -6   3    1.75    0.15
   3  -6   3    1.54    0.16
  -4   6  -3    6.12    0.26
   4  -6   3    5.95    0.26
   4  -6   3    6.12    0.27
  -5   6  -3    3.45    0.23
   5  -6   3    3.63    0.22
  -6   6  -3    0.30    0.12
   6  -6   3    0.10    0.10
  11   5  -3    0.51    0.11
 -11  -5   3    0.70    0.14
  10   5  -3    0.39    0.10
 -10  -5   3    0.21    0.11
   9   5  -3   -0.03    0.08
  -9  -5   3    0.21    0.09
   8   5  -3    0.55    0.10
  -8  -5   3    0.69    0.11
   7   5  -3    0.09    0.07
  -7  -5   3    0.20    0.08
  -7  -5   3    0.22    0.09
   6   5  -3    6.39    0.22
  -6  -5   3    6.28    0.23
  -6  -5   3    6.22    0.21
   5   5  -3    1.29    0.11
  -5  -5   3    1.87    0.15
  -5  -5   3    1.52    0.12
   4   5  -3    0.96    0.09
   4   5  -3    0.99    0.09
  -4  -5   3    0.99    0.11
   3   5  -3    1.57    0.11
   3   5  -3    1.89    0.12
  -3  -5   3    1.83    0.14
   2   5  -3    0.76    0.07
   2   5  -3    0.78    0.08
  -2  -5   3    0.81    0.10
   1   5  -3   12.48    0.27
   1   5  -3   12.62    0.23
  -1  -5   3   12.60    0.30
  -1  -5   3   12.59    0.22
   0   5  -3    1.85    0.09
   0   5  -3    1.93    0.13
   0  -5   3    1.92    0.15
   0  -5   3    1.82    0.10
  -1   5  -3    0.21    0.07
   1  -5   3    0.16    0.08
   1  -5   3    0.24    0.06
  -2   5  -3    0.46    0.09
   2  -5   3    0.45    0.08
   2  -5   3    0.70    0.11
  -3   5  -3   20.77    0.42
   3  -5   3   21.23    0.43
   3  -5   3   20.58    0.41
  -4   5  -3   -0.07    0.07
   4  -5   3    0.26    0.10
   4  -5   3    0.20    0.08
  -5   5  -3    3.58    0.21
   5  -5   3    3.63    0.22
   5  -5   3    3.64    0.21
  -6   5  -3    0.05    0.10
   6  -5   3   -0.14    0.08
  -7   5  -3    0.01    0.10
   7  -5   3    0.08    0.11
  11   4  -3    0.70    0.12
  10   4  -3   -0.06    0.07
 -10  -4   3    0.00    0.09
   9   4  -3    0.96    0.12
  -9  -4   3    1.21    0.14
   8   4  -3    0.18    0.08
  -8  -4   3    0.32    0.09
  -8  -4   3    0.28    0.09
   7   4  -3   12.03    0.29
  -7  -4   3   12.33    0.31
  -7  -4   3   12.12    0.29
   6   4  -3   16.21    0.33
  -6  -4   3   15.82    0.34
  -6  -4   3   16.29    0.33
   5   4  -3    0.68    0.08
  -5  -4   3    0.55    0.09
  -5  -4   3    0.51    0.08
   4   4  -3    1.73    0.12
  -4  -4   3    1.69    0.13
  -4  -4   3    1.73    0.12
   3   4  -3   20.64    0.33
  -3  -4   3   21.23    0.37
  -3  -4   3   20.79    0.35
   2   4  -3   17.54    0.28
   2   4  -3   17.32    0.30
  -2  -4   3   17.71    0.22
  -2  -4   3   17.92    0.33
   1   4  -3    1.69    0.11
   1   4  -3    1.47    0.09
  -1  -4   3    1.50    0.07
  -1  -4   3    1.62    0.12
   0   4  -3   10.24    0.18
   0   4  -3   10.17    0.23
   0  -4   3    9.72    0.19
   0  -4   3   10.05    0.26
  -1   4  -3   12.43    0.27
  -1   4  -3   12.70    0.20
   1  -4   3   12.54    0.24
   1  -4   3   12.09    0.29
  -2   4  -3   24.76    0.41
   2  -4   3   24.19    0.39
   2  -4   3   23.86    0.43
  -3   4  -3    5.21    0.20
   3  -4   3    5.33    0.20
   3  -4   3    5.39    0.21
  -4   4  -3   17.81    0.38
   4  -4   3   18.03    0.38
   4  -4   3   17.76    0.38
  -5   4  -3    2.18    0.17
   5  -4   3    2.34    0.18
   5  -4   3    2.59    0.17
  -6   4  -3    2.64    0.19
   6  -4   3    2.54    0.19
   6  -4   3    2.58    0.18
  -7   4  -3    0.13    0.10
   7  -4   3    0.18    0.10
  -8   4  -3    1.22    0.17
   8  -4   3    1.48    0.19
  11   3  -3    0.03    0.08
  10   3  -3    0.17    0.08
 -10  -3   3    0.12    0.10
   9   3  -3    1.18    0.13
  -9  -3   3    1.32    0.13
  -9  -3   3    1.52    0.15
   8   3  -3   19.82    0.40
  -8  -3   3   20.73    0.40
  -8  -3   3   20.64    0.40
   7   3  -3    3.24    0.16
  -7  -3   3    3.08    0.17
  -7  -3   3    3.19    0.16
   6   3  -3   10.67    0.25
  -6  -3   3   10.48    0.25
  -6  -3   3   10.42    0.25
   5   3  -3    7.72    0.20
  -5  -3   3    7.79    0.21
  -5  -3   3    7.97    0.21
   4   3  -3    6.63    0.18
  -4  -3   3    6.54    0.18
  -4  -3   3    6.46    0.19
   3   3  -3    0.75    0.07
  -3  -3   3    0.90    0.09
  -3  -3   3    0.80    0.08
   2   3  -3   20.06    0.29
  -2  -3   3   19.97    0.32
  -2  -3   3   20.90    0.34
  -2  -3   3   19.68    0.20
   1   3  -3   22.26    0.33
   1   3  -3   22.92    0.30
  -1  -3   3   22.21    0.36
  -1  -3   3   22.56    0.26
   0   3  -3   15.40    0.27
   0   3  -3   15.95    0.22
   0  -3   3   15.30    0.29
   0  -3   3   15.57    0.23
  -1   3  -3   97.03    0.88
  -1   3  -3   96.64    1.01
   1  -3   3   95.70    0.96
   1  -3   3   96.77    1.04
  -2   3  -3    0.28    0.06
   2  -3   3    0.19    0.05
   2  -3   3    0.21    0.07
  -3   3  -3    3.14    0.15
   3  -3   3    3.08    0.16
   3  -3   3    2.88    0.14
  -4   3  -3    0.55    0.09
   4  -3   3    0.75    0.10
   4  -3   3    0.53    0.10
  -5   3  -3    3.10    0.17
   5  -3   3    3.07    0.17
   5  -3   3    3.29    0.19
  -6   3  -3    1.67    0.15
   6  -3   3    1.35    0.14
   6  -3   3    1.98    0.17
  -7   3  -3    2.12    0.18
  -7   3  -3    1.78    0.15
   7  -3   3    1.61    0.17
  -8   3  -3    4.76    0.24
   8  -3   3    4.16    0.26
  10   2  -3    0.42    0.10
 -10  -2   3    0.49    0.12
   9   2  -3    0.32    0.08
  -9  -2   3    0.19    0.08
  -9  -2   3    0.47    0.11
   8   2  -3    8.10    0.24
  -8  -2   3    8.31    0.26
  -8  -2   3    8.14    0.24
   7   2  -3    2.84    0.15
   7   2  -3    2.67    0.15
  -7  -2   3    2.72    0.16
  -7  -2   3    2.78    0.15
   6   2  -3    0.10    0.05
   6   2  -3    0.15    0.06
   6   2  -3    0.07    0.05
  -6  -2   3    0.10    0.06
  -6  -2   3    0.10    0.05
   5   2  -3    0.96    0.06
   5   2  -3    0.73    0.07
   5   2  -3    0.81    0.07
  -5  -2   3    0.97    0.09
  -5  -2   3    1.13    0.10
   4   2  -3    0.02    0.04
   4   2  -3    0.05    0.04
   4   2  -3   -0.02    0.02
  -4  -2   3    0.03    0.05
  -4  -2   3    0.04    0.04
   3   2  -3   43.97    0.51
   3   2  -3   43.39    0.50
  -3  -2   3   43.18    0.53
  -3  -2   3   42.75    0.52
   2   2  -3   32.76    0.39
   2   2  -3   32.00    0.39
  -2  -2   3   33.07    0.42
  -2  -2   3   32.17    0.42
   1   2  -3   10.94    0.18
   1   2  -3   10.86    0.18
  -1  -2   3   10.67    0.21
  -1  -2   3   11.05    0.14
  -1  -2   3   10.90    0.21
   0   2  -3    9.20    0.18
   0   2  -3    9.68    0.15
   0  -2   3    9.34    0.20
   0  -2   3    9.41    0.15
  -1   2  -3    1.84    0.10
  -1   2  -3    1.90    0.06
   1  -2   3    1.95    0.08
  -2   2  -3   10.09    0.22
   2  -2   3   10.71    0.21
   2  -2   3   10.74    0.24
  -3   2  -3   16.69    0.30
   3  -2   3   16.78    0.30
   3  -2   3   17.01    0.32
  -4   2  -3   40.98    0.55
   4  -2   3   41.51    0.58
   4  -2   3   39.96    0.57
  -5   2  -3    1.44    0.13
   5  -2   3    1.38    0.12
   5  -2   3    1.62    0.13
  -6   2  -3   10.05    0.28
  -6   2  -3   10.15    0.27
   6  -2   3    9.96    0.29
  -7   2  -3    1.06    0.12
  -7   2  -3    1.15    0.13
   7  -2   3    1.48    0.16
  -8   2  -3    0.16    0.09
  -8   2  -3   -0.04    0.07
   8  -2   3   -0.08    0.08
  -9   2  -3    0.40    0.11
   9  -2   3    0.50    0.14
  10   1  -3    1.35    0.13
 -10  -1   3    1.54    0.16
   9   1  -3    0.24    0.08
   9   1  -3    0.07    0.07
  -9  -1   3    0.08    0.09
   8   1  -3    0.39    0.08
   8   1  -3    0.49    0.08
   8   1  -3    0.51    0.09
  -8  -1   3    0.55    0.10
  -8  -1   3    0.55    0.08
   7   1  -3   24.49    0.41
   7   1  -3   24.52    0.41
   7   1  -3   25.20    0.39
  -7  -1   3   24.56    0.43
  -7  -1   3   24.36    0.39
   6   1  -3    0.83    0.08
   6   1  -3    0.66    0.07
   6   1  -3    0.78    0.08
  -6  -1   3    0.93    0.08
  -6  -1   3    0.92    0.10
   5   1  -3    5.79    0.16
   5   1  -3    5.59    0.13
   5   1  -3    5.72    0.16
  -5  -1   3    5.76    0.18
  -5  -1   3    5.63    0.15
   4   1  -3    0.04    0.04
   4   1  -3    0.02    0.04
   4   1  -3    0.02    0.03
  -4  -1   3    0.02    0.05
  -4  -1   3   -0.02    0.03
   3   1  -3   10.31    0.19
   3   1  -3   10.39    0.13
   3   1  -3   10.71    0.20
  -3  -1   3   10.50    0.21
  -3  -1   3    9.98    0.19
   2   1  -3   83.24    0.82
   2   1  -3   84.55    0.82
  -2  -1   3   84.26    0.84
  -2  -1   3   85.17    0.85
   1   1  -3   20.61    0.26
   1   1  -3   20.89    0.26
  -1  -1   3   20.59    0.21
  -1  -1   3   20.71    0.29
  -1  -1   3   20.74    0.29
   0   1  -3   31.50    0.33
   0   1  -3   30.49    0.37
   0   1  -3   31.14    0.33
   0  -1   3   31.08    0.33
   0  -1   3   30.64    0.39
  -1   1  -3    5.77    0.09
  -1   1  -3    5.75    0.09
  -1   1  -3    5.71    0.14
   1  -1   3    5.81    0.13
  -2   1  -3   39.12    0.46
   2  -1   3   39.27    0.49
   2  -1   3   38.71    0.46
  -3   1  -3   15.26    0.26
   3  -1   3   16.03    0.29
   3  -1   3   15.58    0.28
  -4   1  -3    6.82    0.18
   4  -1   3    6.68    0.20
   4  -1   3    6.97    0.20
  -5   1  -3   13.08    0.27
   5  -1   3   13.04    0.30
   5  -1   3   12.91    0.30
  -6   1  -3    3.46    0.17
  -6   1  -3    3.07    0.15
   6  -1   3    3.01    0.18
  -7   1  -3    0.08    0.07
  -7   1  -3    0.17    0.08
   7  -1   3    0.14    0.09
  -8   1  -3    0.05    0.08
  -8   1  -3    0.02    0.07
   8  -1   3    0.10    0.09
  -9   1  -3    7.54    0.28
  -9   1  -3    7.61    0.28
   9  -1   3    7.51    0.32
  10  -1   3    0.33    0.13
 -11   0   3    1.06    0.16
 -10   0   3    1.46    0.17
   9   0  -3    3.27    0.18
   9   0  -3    3.47    0.20
   9   0  -3    3.13    0.17
  -9   0   3    3.37    0.21
   8   0  -3    0.53    0.10
   8   0  -3    0.52    0.08
   8   0  -3    0.50    0.08
  -8   0   3    0.50    0.10
   7   0  -3    0.00    0.06
   7   0  -3    0.01    0.06
   7   0  -3   -0.06    0.05
  -7   0   3    0.01    0.07
  -7   0   3    0.09    0.05
   6   0  -3    2.66    0.13
   6   0  -3    3.03    0.13
   6   0  -3    2.81    0.13
  -6   0   3    2.65    0.11
  -6   0   3    2.76    0.15
   5   0  -3   -0.01    0.04
   5   0  -3    0.00    0.04
   5   0  -3   -0.01    0.04
  -5   0   3    0.00    0.06
  -5   0   3   -0.02    0.03
   4   0  -3    6.80    0.16
   4   0  -3    6.80    0.14
   4   0  -3    6.78    0.16
  -4   0   3    6.78    0.18
  -4   0   3    6.82    0.14
   3   0  -3    7.31    0.13
   3   0  -3    7.07    0.16
   3   0  -3    7.18    0.16
  -3   0   3    7.16    0.14
  -3   0   3    6.95    0.17
   2   0  -3   13.91    0.21
   2   0  -3   13.80    0.21
   2   0  -3   14.25    0.17
  -2   0   3   13.86    0.20
   1   0  -3    2.67    0.09
   1   0  -3    2.91    0.09
   1   0  -3    2.79    0.06
  -1   0   3    2.88    0.10
  -1   0   3    2.81    0.09
   0   0  -3    9.32    0.14
   0   0  -3    9.39    0.14
   0   0   3    9.16    0.14
   0   0   3    9.18    0.17
   0   0   3    9.37    0.17
  -1   0  -3   37.77    0.36
  -1   0  -3   37.13    0.41
   1   0   3   36.76    0.40
   1   0   3   36.90    0.43
  -2   0  -3   30.76    0.36
  -2   0  -3   30.90    0.29
   2   0   3   30.18    0.38
   2   0   3   31.50    0.40
  -3   0  -3    2.07    0.09
   3   0   3    2.35    0.11
   3   0   3    2.23    0.11
  -4   0  -3   17.79    0.28
   4   0   3   18.05    0.32
   4   0   3   17.51    0.31
  -5   0  -3    0.86    0.09
  -5   0  -3    1.15    0.09
   5   0   3    1.08    0.10
  -6   0  -3    0.94    0.10
  -6   0  -3    0.87    0.09
   6   0   3    1.05    0.12
  -7   0  -3   23.45    0.41
  -7   0  -3   23.60    0.43
   7   0   3   23.81    0.46
  -8   0  -3    7.06    0.25
  -8   0  -3    6.60    0.23
   8   0   3    7.06    0.28
  -9   0  -3    2.94    0.19
  -9   0  -3    3.11    0.19
   9   0   3    3.53    0.23
 -10   0  -3    1.16    0.14
  10   0   3    1.59    0.18
  10  -1  -3    0.16    0.10
 -10   1   3    0.24    0.11
   9  -1  -3    1.23    0.14
  -9   1   3    1.05    0.14
   8  -1  -3    1.14    0.10
   8  -1  -3    1.27    0.13
   8  -1  -3    1.11    0.10
  -8   1   3    1.09    0.13
   7  -1  -3   15.27    0.30
   7  -1  -3   15.31    0.33
   7  -1  -3   15.39    0.30
  -7   1   3   15.65    0.35
   6  -1  -3    7.26    0.20
   6  -1  -3    7.49    0.20
   6  -1  -3    7.69    0.21
  -6   1   3    7.32    0.22
  -6   1   3    7.50    0.23
   5  -1  -3    7.10    0.18
   5  -1  -3    7.57    0.19
   5  -1  -3    7.41    0.19
  -5   1   3    7.75    0.21
  -5   1   3    7.21    0.15
   4  -1  -3    7.56    0.17
   4  -1  -3    7.93    0.18
   4  -1  -3    7.59    0.18
  -4   1   3    8.06    0.20
  -4   1   3    7.76    0.14
   3  -1  -3    2.36    0.10
   3  -1  -3    2.24    0.10
   3  -1  -3    2.23    0.09
  -3   1   3    2.32    0.11
  -3   1   3    2.28    0.07
   2  -1  -3    0.20    0.04
   2  -1  -3    0.14    0.04
   2  -1  -3    0.23    0.04
  -2   1   3    0.24    0.03
  -2   1   3    0.26    0.05
   1  -1  -3   59.39    0.60
   1  -1  -3   60.35    0.57
  -1   1   3   59.79    0.56
  -1   1   3   58.13    0.60
   0  -1  -3    2.58    0.08
   0   1   3    2.69    0.08
   0   1   3    2.77    0.09
   0   1   3    2.77    0.08
   1   1   3   21.38    0.27
   1   1   3   21.37    0.27
   1   1   3   21.20    0.26
  -2  -1  -3   20.49    0.24
   2   1   3   20.23    0.29
   2   1   3   20.57    0.28
  -3  -1  -3   57.07    0.63
  -3  -1  -3   58.71    0.58
   3   1   3   57.43    0.64
  -4  -1  -3   11.48    0.19
  -4  -1  -3   11.15    0.22
   4   1   3   11.37    0.24
   4   1   3   11.70    0.16
  -5  -1  -3    0.02    0.05
  -5  -1  -3    0.12    0.05
   5   1   3    0.06    0.05
   5   1   3    0.09    0.03
  -6  -1  -3    2.36    0.12
  -6  -1  -3    2.29    0.14
   6   1   3    2.11    0.15
  -7  -1  -3    0.77    0.09
  -7  -1  -3    0.76    0.10
   7   1   3    0.72    0.11
  -8  -1  -3    7.89    0.25
  -8  -1  -3    7.51    0.23
   8   1   3    7.23    0.27
  -9  -1  -3    0.06    0.08
   9   1   3    0.10    0.10
 -10  -1  -3   -0.15    0.08
  10   1   3    0.00    0.10
 -11  -1  -3    0.13    0.12
  11   1   3   -0.08    0.11
  10  -2  -3   -0.04    0.10
 -10   2   3    0.02    0.10
   9  -2  -3    2.42    0.19
  -9   2   3    2.10    0.18
   8  -2  -3   -0.01    0.08
  -8   2   3   -0.09    0.07
   7  -2  -3    5.93    0.19
   7  -2  -3    5.51    0.19
   7  -2  -3    5.64    0.22
  -7   2   3    5.82    0.23
   6  -2  -3   11.50    0.25
   6  -2  -3   11.61    0.28
   6  -2  -3   11.38    0.25
  -6   2   3   10.93    0.29
   5  -2  -3   14.50    0.27
   5  -2  -3   14.66    0.29
   5  -2  -3   14.74    0.27
  -5   2   3   14.86    0.31
   4  -2  -3    0.48    0.06
   4  -2  -3    0.46    0.06
   4  -2  -3    0.56    0.07
  -4   2   3    0.57    0.05
  -4   2   3    0.53    0.07
   3  -2  -3   21.92    0.32
   3  -2  -3   21.83    0.32
  -3   2   3   22.53    0.23
  -3   2   3   22.66    0.34
   2  -2  -3   24.85    0.32
   2  -2  -3   24.55    0.32
  -2   2   3   24.58    0.33
   1  -2  -3    5.53    0.13
   1  -2  -3    5.52    2.07
  -1   2   3    5.56    0.13
   0  -2  -3   92.66    0.87
   0  -2  -3   91.98    0.82
   0   2   3   92.09    0.86
  -1  -2  -3    9.96    0.15
   1   2   3    9.83    0.17
   1   2   3    9.88    0.14
  -2  -2  -3   37.80    0.37
  -2  -2  -3   37.77    0.42
   2   2   3   37.54    0.44
  -3  -2  -3    0.62    0.04
  -3  -2  -3    0.66    0.06
   3   2   3    0.75    0.07
  -4  -2  -3    6.11    0.12
  -4  -2  -3    6.02    0.16
   4   2   3    6.09    0.13
   4   2   3    6.13    0.17
  -5  -2  -3   10.80    0.23
  -5  -2  -3   11.08    0.19
   5   2   3   11.14    0.25
   5   2   3   10.97    0.19
  -6  -2  -3   10.60    0.20
  -6  -2  -3   10.25    0.25
   6   2   3   10.83    0.27
   6   2   3   10.05    0.19
  -7  -2  -3    3.31    0.14
  -7  -2  -3    3.05    0.16
   7   2   3    3.24    0.18
  -8  -2  -3    4.06    0.19
   8   2   3    4.36    0.21
  -9  -2  -3    0.00    0.08
   9   2   3    0.06    0.09
 -10  -2  -3    2.76    0.20
  10   2   3    2.61    0.21
 -11  -2  -3   -0.01    0.09
  11   2   3    0.22    0.13
   9  -3  -3   -0.04    0.11
  -9   3   3    0.11    0.11
   8  -3  -3    0.00    0.09
  -8   3   3    0.09    0.09
   7  -3  -3    0.07    0.08
  -7   3   3    0.22    0.10
   6  -3  -3    0.06    0.05
   6  -3  -3    0.12    0.08
   6  -3  -3   -0.08    0.04
  -6   3   3    0.12    0.08
   5  -3  -3    7.28    0.19
   5  -3  -3    7.61    0.23
   5  -3  -3    8.01    0.20
  -5   3   3    7.59    0.23
   4  -3  -3    1.94    0.11
   4  -3  -3    1.87    0.10
   4  -3  -3    1.85    0.12
  -4   3   3    1.63    0.11
   3  -3  -3    4.23    0.15
   3  -3  -3    4.38    0.14
  -3   3   3    4.16    0.15
   2  -3  -3   27.45    0.36
   2  -3  -3   27.28    0.38
  -2   3   3   27.03    0.37
   1  -3  -3   77.46    0.79
  -1   3   3   76.64    0.78
   0  -3  -3   64.03    0.58
   0  -3  -3   62.61    0.65
   0   3   3   63.04    0.62
  -1  -3  -3   38.25    0.40
  -1  -3  -3   37.30    0.43
   1   3   3   38.01    0.38
  -2  -3  -3   93.73    0.90
   2   3   3   93.08    0.93
   2   3   3   94.52    0.82
  -3  -3  -3    6.29    0.15
   3   3   3    6.19    0.16
   3   3   3    6.14    0.14
  -4  -3  -3    2.87    0.06
  -4  -3  -3    3.00    0.12
   4   3   3    2.95    0.10
   4   3   3    2.70    0.13
  -5  -3  -3    3.86    0.09
  -5  -3  -3    4.18    0.15
   5   3   3    3.95    0.12
   5   3   3    3.88    0.16
  -6  -3  -3    6.44    0.14
  -6  -3  -3    6.34    0.20
   6   3   3    6.53    0.16
   6   3   3    6.23    0.20
  -7  -3  -3   13.18    0.30
   7   3   3   13.42    0.25
   7   3   3   13.35    0.32
  -8  -3  -3    6.12    0.22
   8   3   3    5.93    0.24
  -9  -3  -3    0.06    0.08
   9   3   3   -0.03    0.09
 -10  -3  -3    2.34    0.18
  10   3   3    2.99    0.22
 -11  -3  -3    1.22    0.16
  11   3   3    1.13    0.17
   9  -4  -3    1.37    0.18
  -9   4   3    1.32    0.18
   8  -4  -3    1.94    0.19
  -8   4   3    1.53    0.17
   7  -4  -3    0.09    0.09
  -7   4   3    0.11    0.09
   6  -4  -3    0.50    0.11
  -6   4   3    0.78    0.12
   5  -4  -3   13.70    0.27
   5  -4  -3   13.95    0.27
   5  -4  -3   13.99    0.33
  -5   4   3   14.04    0.33
   4  -4  -3    3.29    0.16
   4  -4  -3    3.05    0.13
  -4   4   3    3.35    0.16
   3  -4  -3   11.73    0.23
   3  -4  -3   11.92    0.27
  -3   4   3   11.74    0.26
   2  -4  -3   12.07    0.25
  -2   4   3   12.28    0.24
   1  -4  -3    9.53    0.12
   1  -4  -3    9.89    0.21
  -1   4   3    9.66    0.19
   0  -4  -3    5.68    0.15
   0  -4  -3    5.87    0.10
   0   4   3    5.78    0.13
  -1  -4  -3    3.58    0.09
  -1  -4  -3    3.55    0.12
   1   4   3    3.45    0.09
  -2  -4  -3    0.57    0.06
   2   4   3    0.67    0.04
   2   4   3    0.63    0.07
  -3  -4  -3   85.62    0.87
   3   4   3   85.72    0.88
   3   4   3   85.82    0.90
  -4  -4  -3   30.83    0.42
   4   4   3   30.53    0.40
   4   4   3   31.15    0.43
  -5  -4  -3    2.21    0.12
   5   4   3    2.24    0.13
   5   4   3    2.33    0.11
  -6  -4  -3    1.50    0.12
   6   4   3    1.43    0.10
   6   4   3    1.69    0.13
  -7  -4  -3    0.37    0.08
   7   4   3    0.42    0.06
   7   4   3    0.35    0.09
  -8  -4  -3    0.40    0.09
   8   4   3    0.33    0.06
   8   4   3    0.38    0.10
  -9  -4  -3    2.94    0.19
   9   4   3    3.70    0.22
 -10  -4  -3    1.73    0.16
  10   4   3    1.26    0.16
 -11  -4  -3    0.11    0.10
  11   4   3   -0.05    0.10
   8  -5  -3    4.20    0.26
  -8   5   3    3.82    0.25
   7  -5  -3    0.09    0.11
  -7   5   3    0.05    0.09
   6  -5  -3    0.86    0.13
  -6   5   3    1.15    0.15
   5  -5  -3    2.95    0.19
  -5   5   3    3.01    0.18
   4  -5  -3   -0.01    0.08
   4  -5  -3    0.03    0.05
  -4   5   3    0.08    0.07
   3  -5  -3    1.27    0.12
   3  -5  -3    0.83    0.08
  -3   5   3    1.18    0.11
   2  -5  -3    0.77    0.09
  -2   5   3    1.00    0.09
   1  -5  -3    0.94    0.06
   1  -5  -3    0.72    0.08
  -1   5   3    0.93    0.08
   0  -5  -3   47.34    0.58
   0  -5  -3   46.79    0.49
   0   5   3   47.32    0.54
  -1  -5  -3   -0.02    0.05
  -1  -5  -3    0.04    0.04
   1   5   3    0.03    0.03
  -2  -5  -3   15.74    0.27
  -2  -5  -3   15.89    0.25
   2   5   3   15.37    0.20
  -3  -5  -3    5.87    0.16
   3   5   3    5.70    0.16
   3   5   3    5.88    0.17
  -4  -5  -3   15.21    0.28
   4   5   3   15.36    0.29
   4   5   3   15.17    0.28
  -5  -5  -3    5.65    0.18
   5   5   3    5.83    0.19
   5   5   3    6.18    0.18
  -6  -5  -3    0.22    0.08
   6   5   3    0.25    0.06
   6   5   3    0.26    0.08
  -7  -5  -3   18.37    0.37
   7   5   3   18.49    0.34
   7   5   3   18.10    0.37
  -8  -5  -3   14.49    0.35
   8   5   3   14.36    0.31
   8   5   3   14.11    0.35
  -9  -5  -3    1.13    0.13
   9   5   3    0.86    0.13
   9   5   3    1.13    0.11
 -10  -5  -3   -0.07    0.09
  10   5   3    0.17    0.11
 -11  -5  -3    1.84    0.18
  11   5   3    1.99    0.19
   7  -6  -3    0.25    0.12
  -7   6   3    0.10    0.10
   6  -6  -3    0.68    0.14
  -6   6   3    0.69    0.12
   5  -6  -3    0.75    0.12
  -5   6   3    0.59    0.11
   4  -6  -3    8.08    0.28
  -4   6   3    8.25    0.27
   3  -6  -3   23.89    0.44
   3  -6  -3   23.45    0.38
  -3   6   3   23.56    0.43
   2  -6  -3    3.45    0.17
  -2   6   3    3.36    0.15
   1  -6  -3    0.35    0.08
  -1   6   3    0.45    0.07
   0  -6  -3    0.35    0.05
   0  -6  -3    0.17    0.06
   0   6   3    0.23    0.05
  -1  -6  -3    8.97    0.18
  -1  -6  -3    8.78    0.22
   1   6   3    8.66    0.18
  -2  -6  -3   23.26    0.36
  -2  -6  -3   23.38    0.34
   2   6   3   23.11    0.29
  -3  -6  -3   11.41    0.24
  -3  -6  -3   11.42    0.24
   3   6   3   11.38    0.16
  -4  -6  -3    0.00    0.05
   4   6   3    0.01    0.06
   4   6   3    0.14    0.05
  -5  -6  -3    1.84    0.13
   5   6   3    1.76    0.12
   5   6   3    1.87    0.13
  -6  -6  -3    6.75    0.22
   6   6   3    6.61    0.21
   6   6   3    6.79    0.21
  -7  -6  -3    1.20    0.12
   7   6   3    1.28    0.11
   7   6   3    0.89    0.11
  -8  -6  -3    0.54    0.10
   8   6   3    0.66    0.09
   8   6   3    0.56    0.11
  -9  -6  -3    0.42    0.11
   9   6   3    0.18    0.09
   9   6   3    0.26    0.07
 -10  -6  -3    0.10    0.10
  10   6   3    0.21    0.07
  10   6   3    0.10    0.11
 -11  -6  -3    0.35    0.12
  11   6   3    0.27    0.12
   6  -7  -3    0.16    0.12
  -6   7   3    0.38    0.12
   5  -7  -3    4.00    0.25
  -5   7   3    4.22    0.23
   4  -7  -3    1.70    0.17
  -4   7   3    1.99    0.17
   3  -7  -3   -4.85    7.66
   2  -7  -3    0.51    0.10
  -2   7   3    0.67    0.10
   1  -7  -3    0.36    0.09
  -1   7   3    0.34    0.07
   0  -7  -3    0.59    0.09
   0   7   3    0.44    0.07
  -1  -7  -3    4.81    0.18
  -1  -7  -3    4.86    0.16
   1   7   3    4.78    0.15
  -2  -7  -3    3.21    0.14
  -2  -7  -3    3.17    0.15
   2   7   3    3.26    0.11
  -3  -7  -3    8.96    0.22
  -3  -7  -3    8.86    0.23
  -4  -7  -3    0.77    0.09
  -4  -7  -3    0.80    0.09
   4   7   3    0.71    0.09
  -5  -7  -3    2.58    0.15
  -5  -7  -3    2.37    0.14
   5   7   3    2.51    0.15
   5   7   3    2.30    0.15
  -6  -7  -3    1.30    0.12
   6   7   3    1.27    0.11
   6   7   3    1.65    0.13
  -7  -7  -3    1.76    0.15
   7   7   3    1.99    0.14
   7   7   3    1.80    0.15
  -8  -7  -3    0.84    0.12
   8   7   3    1.21    0.13
   8   7   3    0.80    0.10
  -9  -7  -3    0.29    0.10
   9   7   3    0.28    0.10
   9   7   3    0.18    0.08
 -10  -7  -3    0.19    0.11
  10   7   3    0.26    0.11
  10   7   3    0.22    0.08
 -11  -7  -3    0.74    0.15
   5  -8  -3    0.80    0.16
  -5   8   3    0.91    0.15
   4  -8  -3    3.39    0.24
  -4   8   3    3.43    0.21
   3  -8  -3    2.26    0.20
  -3   8   3    1.97    0.17
   2  -8  -3    0.78    0.13
  -2   8   3    0.90    0.12
   1  -8  -3   -0.07    0.07
  -1   8   3    0.10    0.07
   0  -8  -3    1.00    0.12
   0   8   3    0.87    0.10
  -1  -8  -3    0.28    0.08
   1   8   3    0.54    0.08
  -2  -8  -3    6.09    0.21
  -2  -8  -3    6.50    0.20
  -3  -8  -3    8.04    0.23
  -3  -8  -3    8.03    0.23
  -4  -8  -3    4.13    0.19
  -4  -8  -3    4.17    0.18
  -5  -8  -3    5.13    0.20
  -5  -8  -3    5.26    0.19
   5   8   3    5.45    0.21
  -6  -8  -3    0.11    0.07
  -6  -8  -3   -0.01    0.07
   6   8   3    0.06    0.07
  -7  -8  -3    0.18    0.09
   7   8   3    0.17    0.08
   7   8   3    0.36    0.09
  -8  -8  -3    1.60    0.16
   8   8   3    1.70    0.14
   8   8   3    2.11    0.16
  -9  -8  -3    0.49    0.13
   9   8   3    0.36    0.09
 -10  -8  -3    1.06    0.16
  10   8   3    1.03    0.13
 -11  -8  -3    0.14    0.12
  11   8   3    0.26    0.09
   4  -9  -3    0.07    0.12
  -4   9   3    0.16    0.10
   3  -9  -3    4.54    0.26
  -3   9   3    4.24    0.24
   2  -9  -3    5.30    0.26
  -2   9   3    5.26    0.23
   1  -9  -3    1.17    0.15
  -1   9   3    1.07    0.12
   0  -9  -3    4.89    0.23
   0   9   3    5.12    0.20
  -1  -9  -3    0.01    0.08
  -2  -9  -3    0.24    0.08
  -3  -9  -3    0.12    0.07
  -3  -9  -3    0.21    0.08
  -4  -9  -3    4.63    0.20
  -4  -9  -3    4.70    0.21
  -5  -9  -3   -0.01    0.07
  -5  -9  -3    0.11    0.09
   5   9   3    0.07    0.07
  -6  -9  -3    4.97    0.23
  -6  -9  -3    5.70    0.22
   6   9   3    5.27    0.23
  -7  -9  -3    0.41    0.09
  -7  -9  -3    0.35    0.10
   7   9   3    0.46    0.10
  -8  -9  -3    0.72    0.14
   8   9   3    0.65    0.11
  -9  -9  -3    2.18    0.20
   9   9   3    1.93    0.16
 -10  -9  -3   -0.07    0.11
  10   9   3    0.10    0.08
   3 -10  -3    0.33    0.14
  -3  10   3    0.09    0.10
   2 -10  -3    1.90    0.20
  -2  10   3    1.98    0.18
   1 -10  -3    0.17    0.11
  -1  10   3    0.13    0.09
   0 -10  -3    1.19    0.15
  -1 -10  -3    0.06    0.09
  -2 -10  -3    1.35    0.14
  -3 -10  -3    0.60    0.11
  -4 -10  -3    2.56    0.19
  -4 -10  -3    2.46    0.18
  -5 -10  -3    4.74    0.23
  -5 -10  -3    4.80    0.22
  -6 -10  -3    8.33    0.30
   6  10   3    8.16    0.29
  -7 -10  -3   -0.10    0.09
   7  10   3   -0.04    0.07
  -8 -10  -3   -0.04    0.11
   8  10   3    0.05    0.08
  -9 -10  -3    0.78    0.15
   9  10   3    0.54    0.11
 -10 -10  -3    0.56    0.15
  10  10   3    0.55    0.12
   1 -11  -3   -0.12    0.10
   0 -11  -3    0.45    0.14
  -1 -11  -3    1.38    0.17
  -2 -11  -3   -0.04    0.09
  -3 -11  -3    3.31    0.21
  -4 -11  -3    4.48    0.23
  -5 -11  -3    0.80    0.13
  -6 -11  -3    0.85    0.14
  -7 -11  -3    0.78    0.14
   7  11   3    0.79    0.13
  -8 -11  -3    0.48    0.13
   8  11   3    0.67    0.13
  -9 -11  -3    0.03    0.13
   9  11   3   -0.02    0.09
  -2 -12  -3    0.43    0.13
  -6 -12  -3    0.17    0.11
  -7 -12  -3    0.01    0.10
  -5 -10   4    0.35    0.16
  -4 -10   4    1.98    0.22
  -3 -10   4   -0.05    0.12
   8   9  -4    0.48    0.12
  -8  -9   4    0.75    0.25
   7   9  -4    0.11    0.09
  -7  -9   4   -0.04    0.12
   6   9  -4    0.40    0.11
  -6  -9   4    0.76    0.16
   5   9  -4    0.23    0.09
  -5  -9   4    0.08    0.12
   4   9  -4    0.19    0.11
  -4  -9   4    0.11    0.12
   3   9  -4    0.37    0.11
  -3  -9   4    0.25    0.13
   2   9  -4    0.15    0.10
  -2  -9   4    0.15    0.12
   1   9  -4    1.88    0.18
  -1  -9   4    1.78    0.20
   0   9  -4    0.61    0.13
   0  -9   4    0.42    0.14
  -1   9  -4    0.12    0.11
   9   8  -4    0.59    0.12
  -9  -8   4    0.68    0.15
   8   8  -4    0.12    0.10
  -8  -8   4    0.13    0.12
   7   8  -4    0.43    0.11
  -7  -8   4    0.54    0.14
   6   8  -4    2.05    0.17
  -6  -8   4    2.03    0.20
   5   8  -4    0.10    0.08
   5   8  -4    0.22    0.09
  -5  -8   4    0.19    0.12
   4   8  -4    0.16    0.09
   4   8  -4    0.30    0.09
  -4  -8   4    0.29    0.13
   3   8  -4    1.93    0.16
  -3  -8   4    1.91    0.20
   2   8  -4    0.07    0.09
  -2  -8   4    0.12    0.11
   1   8  -4    3.93    0.21
  -1  -8   4    3.81    0.25
   0   8  -4    0.07    0.09
   0  -8   4    0.02    0.10
  -1   8  -4    0.52    0.12
   1  -8   4    0.54    0.14
  -2   8  -4    0.12    0.10
   2  -8   4    0.00    0.10
  10   7  -4    0.48    0.12
 -10  -7   4    0.61    0.14
   9   7  -4    0.05    0.09
  -9  -7   4    0.04    0.10
   8   7  -4    0.45    0.11
  -8  -7   4    0.23    0.11
   7   7  -4    0.05    0.09
  -7  -7   4    0.06    0.10
   6   7  -4    0.25    0.09
   6   7  -4    0.31    0.08
  -6  -7   4    0.32    0.11
   5   7  -4    1.03    0.12
   5   7  -4    1.46    0.13
  -5  -7   4    1.24    0.16
   4   7  -4    5.80    0.22
   4   7  -4    5.94    0.23
  -4  -7   4    6.39    0.27
   3   7  -4   11.00    0.30
   3   7  -4   11.22    0.28
  -3  -7   4   11.54    0.35
   2   7  -4    1.42    0.13
  -2  -7   4    1.68    0.17
   1   7  -4    0.62    0.11
  -1  -7   4    0.67    0.13
   0   7  -4    0.18    0.09
   0  -7   4    0.15    0.10
  -1   7  -4    0.65    0.12
   1  -7   4    0.68    0.14
  -2   7  -4   -0.04    0.09
   2  -7   4    0.14    0.11
  -3   7  -4   -0.09    0.08
   3  -7   4   -0.03    0.10
  -4   7  -4    0.74    0.14
   4  -7   4    0.82    0.13
  10   6  -4    1.20    0.15
 -10  -6   4    1.17    0.16
   9   6  -4    0.57    0.12
  -9  -6   4    0.77    0.13
   8   6  -4    0.17    0.09
  -8  -6   4    0.13    0.10
   7   6  -4    0.02    0.07
  -7  -6   4    0.09    0.09
  -7  -6   4    0.17    0.09
   6   6  -4    0.40    0.09
  -6  -6   4    0.53    0.11
  -6  -6   4    0.54    0.11
   5   6  -4    9.32    0.26
   5   6  -4    9.16    0.27
  -5  -6   4    9.54    0.31
   4   6  -4    1.76    0.13
   4   6  -4    1.93    0.14
  -4  -6   4    1.71    0.16
   3   6  -4    5.85    0.21
   3   6  -4    6.24    0.20
  -3  -6   4    6.14    0.25
   2   6  -4    0.77    0.09
   2   6  -4    0.96    0.11
  -2  -6   4    0.74    0.11
   1   6  -4    3.81    0.19
  -1  -6   4    3.76    0.21
   0   6  -4    8.71    0.26
   0  -6   4    8.98    0.30
  -1   6  -4    0.84    0.12
   1  -6   4    0.95    0.13
  -2   6  -4   30.44    0.54
   2  -6   4   30.69    0.58
   2  -6   4   29.73    0.51
  -3   6  -4    0.37    0.11
   3  -6   4    0.26    0.09
   3  -6   4    0.21    0.11
  -4   6  -4    0.20    0.11
   4  -6   4    0.06    0.10
   4  -6   4   -0.03    0.08
  -5   6  -4    0.27    0.11
   5  -6   4    0.18    0.10
  11   5  -4    0.06    0.09
 -11  -5   4    0.27    0.12
  10   5  -4    0.40    0.11
 -10  -5   4    0.60    0.13
   9   5  -4    1.61    0.15
  -9  -5   4    1.75    0.17
   8   5  -4    0.20    0.09
  -8  -5   4    0.15    0.12
  -8  -5   4    0.08    0.08
   7   5  -4    0.13    0.08
  -7  -5   4    0.03    0.08
  -7  -5   4    0.02    0.08
   6   5  -4    1.28    0.12
  -6  -5   4    1.20    0.13
  -6  -5   4    1.27    0.13
   5   5  -4   22.39    0.40
  -5  -5   4   22.23    0.44
  -5  -5   4   21.84    0.41
   4   5  -4    0.11    0.07
   4   5  -4    0.18    0.07
  -4  -5   4    0.31    0.09
   3   5  -4    6.68    0.20
   3   5  -4    6.85    0.20
  -3  -5   4    6.72    0.24
   2   5  -4    8.45    0.24
   2   5  -4    8.68    0.21
  -2  -5   4    8.95    0.27
   1   5  -4    0.26    0.07
   1   5  -4   -0.01    0.05
  -1  -5   4    0.08    0.08
   0   5  -4   37.32    0.56
   0  -5   4   38.45    0.61
   0  -5   4   37.85    0.50
  -1   5  -4    8.14    0.25
   1  -5   4    7.56    0.27
   1  -5   4    7.97    0.22
  -2   5  -4   10.17    0.29
   2  -5   4    9.91    0.31
   2  -5   4   10.01    0.26
  -3   5  -4    0.62    0.11
   3  -5   4    0.64    0.12
   3  -5   4    0.81    0.11
  -4   5  -4    1.35    0.15
   4  -5   4    1.12    0.13
   4  -5   4    1.41    0.15
  -5   5  -4    0.36    0.11
   5  -5   4    0.38    0.10
   5  -5   4    0.42    0.12
  -6   5  -4    0.30    0.12
   6  -5   4    0.40    0.11
  11   4  -4    0.18    0.10
  10   4  -4    0.07    0.08
 -10  -4   4    0.03    0.09
   9   4  -4    5.67    0.24
  -9  -4   4    5.89    0.24
   8   4  -4   13.13    0.34
  -8  -4   4   14.12    0.35
  -8  -4   4   13.11    0.34
   7   4  -4   16.86    0.36
  -7  -4   4   16.62    0.36
  -7  -4   4   16.26    0.37
   6   4  -4    5.39    0.21
  -6  -4   4    5.74    0.22
  -6  -4   4    5.61    0.22
   5   4  -4    0.31    0.07
  -5  -4   4    0.10    0.07
  -5  -4   4   -0.02    0.07
   4   4  -4    1.16    0.10
  -4  -4   4    1.37    0.13
  -4  -4   4    1.56    0.13
   3   4  -4    0.05    0.05
  -3  -4   4    0.07    0.06
  -3  -4   4    0.02    0.07
   2   4  -4    0.99    0.09
   2   4  -4    0.98    0.08
  -2  -4   4    1.06    0.11
   1   4  -4   -0.02    0.05
   1   4  -4    0.00    0.04
  -1  -4   4    0.06    0.07
  -1  -4   4    0.04    0.03
   0   4  -4    9.86    0.18
   0   4  -4    9.20    0.24
   0  -4   4    9.56    0.19
   0  -4   4    9.00    0.26
  -1   4  -4    4.49    0.18
   1  -4   4    4.42    0.15
   1  -4   4    4.51    0.20
  -2   4  -4    2.79    0.16
   2  -4   4    2.85    0.17
   2  -4   4    2.66    0.14
  -3   4  -4    5.51    0.21
   3  -4   4    5.75    0.23
   3  -4   4    5.78    0.20
  -4   4  -4    2.97    0.18
   4  -4   4    3.24    0.18
   4  -4   4    3.08    0.19
  -5   4  -4   10.42    0.31
   5  -4   4   10.50    0.32
   5  -4   4   10.92    0.32
  -6   4  -4    1.81    0.17
   6  -4   4    1.64    0.17
   6  -4   4    2.03    0.18
  -7   4  -4    0.24    0.11
   7  -4   4    0.22    0.11
  11   3  -4   -0.01    0.08
  10   3  -4    0.46    0.10
   9   3  -4    2.86    0.19
  -9  -3   4    2.92    0.20
  -9  -3   4    3.21    0.18
   8   3  -4    0.59    0.10
  -8  -3   4    0.52    0.11
  -8  -3   4    0.64    0.11
   7   3  -4    2.53    0.16
  -7  -3   4    2.40    0.17
  -7  -3   4    2.20    0.15
   6   3  -4   13.12    0.29
   6   3  -4   12.83    0.29
  -6  -3   4   12.70    0.30
  -6  -3   4   12.21    0.29
   5   3  -4    0.50    0.07
   5   3  -4    0.62    0.08
  -5  -3   4    0.54    0.09
  -5  -3   4    0.58    0.08
   4   3  -4   34.64    0.47
   4   3  -4   34.70    0.48
  -4  -3   4   34.23    0.50
  -4  -3   4   34.94    0.51
   3   3  -4    1.67    0.11
  -3  -3   4    1.46    0.12
  -3  -3   4    1.52    0.12
   2   3  -4   54.83    0.61
  -2  -3   4   55.15    0.67
  -2  -3   4   53.66    0.68
   1   3  -4    6.34    0.15
   1   3  -4    6.18    0.18
  -1  -3   4    6.31    0.12
  -1  -3   4    6.22    0.19
   0   3  -4   37.88    0.51
   0   3  -4   39.36    0.43
   0  -3   4   38.79    0.45
   0  -3   4   38.51    0.55
  -1   3  -4    0.28    0.04
  -1   3  -4    0.32    0.07
   1  -3   4    0.29    0.05
   1  -3   4    0.12    0.06
  -2   3  -4    0.59    0.08
   2  -3   4    0.75    0.10
   2  -3   4    0.77    0.08
  -3   3  -4   29.26    0.47
   3  -3   4   29.15    0.46
   3  -3   4   29.18    0.49
  -4   3  -4    0.00    0.07
   4  -3   4    0.11    0.07
   4  -3   4    0.04    0.08
  -5   3  -4   11.15    0.30
   5  -3   4   10.95    0.31
   5  -3   4   10.64    0.32
  -6   3  -4    1.10    0.13
   6  -3   4    1.24    0.14
   6  -3   4    0.99    0.14
  -7   3  -4    4.99    0.23
  -7   3  -4    4.97    0.25
   7  -3   4    5.23    0.27
  -8   3  -4    0.37    0.12
   8  -3   4    0.30    0.13
  11   2  -4   -0.04    0.08
  10   2  -4    1.77    0.15
 -10  -2   4    2.00    0.18
   9   2  -4    0.16    0.07
  -9  -2   4    0.14    0.10
   8   2  -4   15.00    0.35
   8   2  -4   15.40    0.35
  -8  -2   4   15.92    0.34
  -8  -2   4   15.33    0.36
   7   2  -4    0.03    0.06
   7   2  -4    0.06    0.06
  -7  -2   4   -0.08    0.06
  -7  -2   4    0.03    0.08
   6   2  -4   -0.01    0.05
   6   2  -4   -0.14    0.05
  -6  -2   4   -0.02    0.05
  -6  -2   4    0.03    0.07
   5   2  -4    3.49    0.15
   5   2  -4    3.49    0.15
  -5  -2   4    3.37    0.16
  -5  -2   4    3.69    0.15
   4   2  -4   28.72    0.41
   4   2  -4   28.73    0.41
  -4  -2   4   29.52    0.42
  -4  -2   4   28.70    0.43
   3   2  -4   30.17    0.40
   3   2  -4   29.86    0.40
  -3  -2   4   30.36    0.43
  -3  -2   4   30.45    0.44
   2   2  -4   10.12    0.19
   2   2  -4    9.89    0.19
  -2  -2   4   10.33    0.23
  -2  -2   4    9.64    0.22
   1   2  -4    9.81    0.18
   1   2  -4    9.98    0.18
  -1  -2   4    9.94    0.14
  -1  -2   4    9.74    0.22
  -1  -2   4    9.58    0.22
   0   2  -4   23.39    0.28
   0   2  -4   22.92    0.34
   0   2  -4   23.61    0.28
   0  -2   4   22.82    0.29
   0  -2   4   22.91    0.37
  -1   2  -4    1.68    0.06
  -1   2  -4    1.87    0.11
   1  -2   4    1.70    0.09
   1  -2   4    1.54    0.12
  -2   2  -4   14.89    0.28
   2  -2   4   15.06    0.31
   2  -2   4   15.16    0.27
  -3   2  -4   33.50    0.48
   3  -2   4   32.32    0.47
   3  -2   4   33.61    0.51
  -4   2  -4    9.30    0.24
   4  -2   4    9.93    0.27
   4  -2   4    9.61    0.25
  -5   2  -4    4.87    0.20
   5  -2   4    4.53    0.21
   5  -2   4    4.91    0.21
  -6   2  -4    2.57    0.17
   6  -2   4    2.29    0.17
   6  -2   4    2.38    0.17
  -7   2  -4    0.83    0.12
  -7   2  -4    0.99    0.12
   7  -2   4    0.75    0.13
  -8   2  -4    4.80    0.23
  -8   2  -4    4.25    0.23
   8  -2   4    4.60    0.26
  -9   2  -4    0.01    0.10
   9  -2   4    0.05    0.11
 -11  -1   4   -0.08    0.10
  10   1  -4    0.00    0.07
 -10  -1   4   -0.06    0.09
   9   1  -4    0.20    0.08
   9   1  -4    0.13    0.07
  -9  -1   4    0.06    0.09
   8   1  -4    5.43    0.21
   8   1  -4    4.93    0.20
  -8  -1   4    5.49    0.23
   7   1  -4   21.39    0.39
   7   1  -4   21.33    0.39
  -7  -1   4   21.81    0.37
  -7  -1   4   21.97    0.42
   6   1  -4    5.81    0.19
   6   1  -4    6.23    0.18
   6   1  -4    6.12    0.19
  -6  -1   4    6.26    0.18
  -6  -1   4    5.90    0.21
   5   1  -4   18.15    0.25
   5   1  -4   17.53    0.31
   5   1  -4   18.00    0.32
  -5  -1   4   18.59    0.34
  -5  -1   4   18.48    0.30
   4   1  -4   23.24    0.35
   4   1  -4   23.83    0.35
   4   1  -4   23.88    0.27
  -4  -1   4   24.09    0.38
  -4  -1   4   23.50    0.34
   3   1  -4   31.65    0.41
   3   1  -4   31.16    0.30
   3   1  -4   31.08    0.41
  -3  -1   4   31.29    0.43
  -3  -1   4   31.44    0.41
   2   1  -4    1.86    0.09
   2   1  -4    1.91    0.09
  -2  -1   4    1.76    0.11
  -2  -1   4    1.89    0.10
   1   1  -4    0.01    0.03
   1   1  -4    0.02    0.03
  -1  -1   4    0.02    0.02
  -1  -1   4    0.02    0.04
  -1  -1   4    0.03    0.05
   0   1  -4   17.48    0.23
   0   1  -4   17.87    0.23
   0  -1   4   17.56    0.29
   0  -1   4   17.36    0.29
   0  -1   4   17.53    0.23
  -1   1  -4    8.10    0.12
  -1   1  -4    7.94    0.18
  -1   1  -4    8.07    0.12
   1  -1   4    7.98    0.20
   1  -1   4    8.09    0.16
  -2   1  -4    0.08    0.05
  -2   1  -4    0.08    0.02
  -2   1  -4    0.07    0.02
   2  -1   4    0.11    0.04
   2  -1   4    0.06    0.05
  -3   1  -4   54.68    0.64
   3  -1   4   55.73    0.66
   3  -1   4   55.21    0.69
  -4   1  -4    1.72    0.12
   4  -1   4    1.67    0.13
   4  -1   4    1.67    0.12
  -5   1  -4    9.53    0.25
   5  -1   4   10.12    0.28
   5  -1   4   10.04    0.27
  -6   1  -4   31.17    0.51
  -6   1  -4   30.98    0.49
   6  -1   4   31.91    0.54
  -7   1  -4   10.33    0.29
  -7   1  -4   10.96    0.30
   7  -1   4   10.45    0.32
  -8   1  -4    2.30    0.17
  -8   1  -4    2.59    0.19
   8  -1   4    2.16    0.20
  -9   1  -4    0.59    0.12
  -9   1  -4    0.69    0.12
   9  -1   4    0.59    0.13
 -10   0   4    3.14    0.23
   9   0  -4    0.14    0.07
   9   0  -4   -0.02    0.06
  -9   0   4    0.02    0.10
   8   0  -4    1.07    0.11
   8   0  -4    1.09    0.11
  -8   0   4    0.93    0.12
   7   0  -4    0.42    0.08
   7   0  -4    0.52    0.08
   7   0  -4    0.59    0.09
  -7   0   4    0.66    0.11
   6   0  -4    0.16    0.06
   6   0  -4    0.12    0.06
   6   0  -4    0.14    0.06
  -6   0   4    0.07    0.05
  -6   0   4    0.08    0.08
   5   0  -4    0.85    0.07
   5   0  -4    0.74    0.08
   5   0  -4    0.68    0.07
  -5   0   4    0.98    0.08
  -5   0   4    0.76    0.09
   4   0  -4   30.02    0.41
   4   0  -4   30.53    0.36
   4   0  -4   29.87    0.42
  -4   0   4   29.48    0.38
  -4   0   4   30.71    0.44
   3   0  -4   60.97    0.59
   3   0  -4   60.87    0.66
   3   0  -4   59.82    0.66
  -3   0   4   59.92    0.63
   2   0  -4   36.25    0.44
   2   0  -4   37.62    0.37
   2   0  -4   37.07    0.44
  -2   0   4   36.80    0.46
  -2   0   4   36.48    0.43
   1   0  -4    4.50    0.12
   1   0  -4    4.82    0.12
  -1   0   4    4.56    0.14
  -1   0   4    4.78    0.09
  -1   0   4    4.86    0.13
   0   0  -4    0.20    0.03
   0   0  -4    0.16    0.03
   0   0   4    0.16    0.03
   0   0   4    0.27    0.05
   0   0   4    0.23    0.05
  -1   0  -4  400.09    3.50
  -1   0  -4  387.82    3.60
  -1   0  -4  397.02    3.50
   1   0   4  393.45    3.61
   1   0   4  388.73    3.50
  -2   0  -4    6.08    0.14
  -2   0  -4    6.04    0.10
   2   0   4    5.80    0.15
   2   0   4    5.85    0.17
  -3   0  -4   18.76    0.19
  -3   0  -4   18.61    0.29
   3   0   4   18.46    0.31
   3   0   4   18.96    0.33
  -4   0  -4   21.89    0.33
   4   0   4   21.49    0.37
  -5   0  -4   10.80    0.24
  -5   0  -4   10.90    0.26
   5   0   4   10.80    0.27
  -6   0  -4    2.26    0.14
  -6   0  -4    2.35    0.15
   6   0   4    2.36    0.16
  -7   0  -4    2.36    0.16
  -7   0  -4    2.86    0.15
   7   0   4    2.61    0.18
  -8   0  -4    1.72    0.14
  -8   0  -4    1.43    0.14
   8   0   4    1.53    0.17
  -9   0  -4    2.39    0.19
   9   0   4    2.43    0.21
 -10   0  -4    3.38    0.22
  10   0   4    2.67    0.23
 -10   1   4    4.76    0.26
   9  -1  -4    9.33    0.28
   9  -1  -4    8.68    0.40
   9  -1  -4    9.26    0.28
  -9   1   4    9.13    0.32
   8  -1  -4    0.24    0.07
   8  -1  -4    0.19    0.07
   8  -1  -4    0.22    0.09
  -8   1   4    0.13    0.09
   7  -1  -4    5.56    0.20
   7  -1  -4    5.33    0.19
   7  -1  -4    5.62    0.20
  -7   1   4    5.60    0.23
   6  -1  -4   17.46    0.33
   6  -1  -4   17.84    0.32
   6  -1  -4   17.87    0.33
  -6   1   4   16.88    0.36
   5  -1  -4    8.44    0.21
   5  -1  -4    8.18    0.21
   5  -1  -4    8.47    0.20
  -5   1   4    8.19    0.23
  -5   1   4    7.70    0.16
   4  -1  -4    3.03    0.11
   4  -1  -4    2.98    0.13
   4  -1  -4    3.30    0.13
  -4   1   4    2.90    0.14
  -4   1   4    3.20    0.09
   3  -1  -4    0.55    0.06
   3  -1  -4    0.70    0.06
   3  -1  -4    0.70    0.06
  -3   1   4    0.66    0.05
  -3   1   4    0.67    0.08
   2  -1  -4    4.01    0.12
   2  -1  -4    4.19    0.12
   2  -1  -4    4.10    0.10
  -2   1   4    4.10    0.10
  -2   1   4    4.03    0.13
   1  -1  -4    5.96    0.14
   1  -1  -4    5.88    0.12
  -1   1   4    5.90    0.15
  -1   1   4    5.80    0.12
   0  -1  -4  138.37    1.25
   0   1   4  135.89    1.27
   0   1   4  133.95    1.25
   0   1   4  136.29    1.24
  -1  -1  -4   18.72    1.81
   1   1   4   19.39    0.27
   1   1   4   19.80    0.28
   1   1   4   20.49    0.28
  -2  -1  -4    0.95    0.06
   2   1   4    0.99    0.08
   2   1   4    0.87    0.08
  -3  -1  -4   43.04    0.48
   3   1   4   42.82    0.53
   3   1   4   43.30    0.54
  -4  -1  -4   35.41    0.48
  -4  -1  -4   35.55    0.43
   4   1   4   35.66    0.49
  -5  -1  -4   23.25    0.34
  -5  -1  -4   23.52    0.39
   5   1   4   23.09    0.40
  -6  -1  -4   62.61    0.71
  -6  -1  -4   61.96    0.78
   6   1   4   61.74    0.80
  -7  -1  -4    7.75    0.22
  -7  -1  -4    8.47    0.26
   7   1   4    8.47    0.27
  -8  -1  -4    1.47    0.14
   8   1   4    1.29    0.15
  -9  -1  -4    5.76    0.24
   9   1   4    5.97    0.28
 -10  -1  -4    1.22    0.15
  10   1   4    1.21    0.17
 -10   2   4    1.36    0.18
   9  -2  -4    1.14    0.15
  -9   2   4    0.99    0.15
   8  -2  -4    0.06    0.07
   8  -2  -4    0.23    0.09
   8  -2  -4    0.23    0.07
  -8   2   4    0.26    0.10
   7  -2  -4   -0.06    0.07
   7  -2  -4    0.00    0.05
   7  -2  -4   -0.01    0.06
  -7   2   4    0.09    0.08
   6  -2  -4   25.92    0.41
   6  -2  -4   25.18    0.43
   6  -2  -4   26.35    0.42
  -6   2   4   25.64    0.46
   5  -2  -4   12.19    0.26
   5  -2  -4   11.99    0.26
   5  -2  -4   12.35    0.26
  -5   2   4   11.64    0.28
   4  -2  -4    1.54    0.10
   4  -2  -4    1.54    0.11
   4  -2  -4    1.61    0.11
  -4   2   4    1.52    0.06
  -4   2   4    1.56    0.12
   3  -2  -4    0.87    0.07
   3  -2  -4    0.90    0.07
   3  -2  -4    0.75    0.07
  -3   2   4    0.94    0.04
  -3   2   4    0.86    0.08
   2  -2  -4   56.04    0.60
   2  -2  -4   57.08    0.63
  -2   2   4   56.21    0.52
  -2   2   4   56.14    0.63
   1  -2  -4   66.32    0.69
   1  -2  -4   66.66    0.67
  -1   2   4   65.28    0.61
  -1   2   4   66.75    0.69
   0  -2  -4    5.83    0.13
   0   2   4    5.92    0.13
   0   2   4    5.78    0.11
   1   2   4    4.31    0.12
   1   2   4    4.05    0.11
   1   2   4    4.45    0.11
  -2  -2  -4    0.15    0.04
   2   2   4    0.21    0.05
  -3  -2  -4   -0.02    0.03
  -3  -2  -4    0.00    0.04
   3   2   4    0.01    0.05
  -4  -2  -4   67.13    0.67
  -4  -2  -4   67.09    0.75
   4   2   4   66.57    0.77
  -5  -2  -4   15.65    0.24
  -5  -2  -4   15.84    0.30
   5   2   4   15.69    0.32
  -6  -2  -4   13.62    0.24
  -6  -2  -4   13.43    0.30
   6   2   4   13.80    0.32
  -7  -2  -4   11.38    0.29
  -7  -2  -4   12.44    0.33
   7   2   4   11.33    0.31
  -8  -2  -4   13.79    0.34
   8   2   4   13.96    0.37
  -9  -2  -4    3.81    0.21
   9   2   4    4.18    0.24
 -10  -2  -4    0.46    0.12
  10   2   4    1.06    0.16
 -11  -2  -4    2.65    0.21
  11   2   4    2.42    0.23
   9  -3  -4    2.58    0.21
  -9   3   4    2.38    0.21
   8  -3  -4    3.87    0.23
  -8   3   4    4.22    0.24
   7  -3  -4    0.74    0.09
   7  -3  -4    0.72    0.12
   7  -3  -4    0.80    0.09
  -7   3   4    0.75    0.12
   6  -3  -4    6.50    0.23
   6  -3  -4    6.95    0.21
   6  -3  -4    6.58    0.21
  -6   3   4    6.56    0.24
   5  -3  -4    0.93    0.09
   5  -3  -4    0.98    0.09
   5  -3  -4    0.84    0.10
  -5   3   4    0.76    0.10
   4  -3  -4    0.40    0.08
   4  -3  -4    0.42    0.06
   4  -3  -4    0.37    0.06
  -4   3   4    0.52    0.09
   3  -3  -4    4.76    0.16
   3  -3  -4    4.72    0.15
  -3   3   4    4.98    0.16
   2  -3  -4   12.78    0.24
   2  -3  -4   12.59    0.23
  -2   3   4   12.20    0.24
   1  -3  -4  102.67    1.01
  -1   3   4  102.27    1.01
   0  -3  -4   30.35    0.31
   0  -3  -4   30.01    0.38
   0   3   4   29.41    0.36
  -1  -3  -4    4.39    0.10
   1   3   4    4.42    0.13
   1   3   4    4.10    0.10
  -2  -3  -4   92.50    0.90
   2   3   4   92.19    0.84
   2   3   4   91.41    0.94
  -3  -3  -4    8.42    0.12
  -3  -3  -4    8.56    0.18
   3   3   4    8.96    0.20
  -4  -3  -4    0.39    0.03
  -4  -3  -4    0.48    0.07
   4   3   4    0.34    0.07
  -5  -3  -4    0.34    0.07
  -5  -3  -4    0.40    0.04
   5   3   4    0.37    0.08
   5   3   4    0.32    0.05
  -6  -3  -4   22.52    0.39
   6   3   4   22.83    0.33
   6   3   4   22.58    0.41
  -7  -3  -4    0.98    0.11
   7   3   4    1.23    0.13
  -8  -3  -4    3.38    0.19
   8   3   4    3.41    0.20
  -9  -3  -4    0.51    0.11
   9   3   4    0.58    0.12
 -10  -3  -4    4.13    0.23
  10   3   4    4.13    0.25
 -11  -3  -4    1.98    0.19
  11   3   4    1.91    0.21
   9  -4  -4    0.27    0.12
  -9   4   4    0.04    0.11
   8  -4  -4   -0.06    0.09
  -8   4   4   -0.11    0.09
   7  -4  -4    1.17    0.15
  -7   4   4    1.00    0.14
   6  -4  -4   -0.06    0.07
   6  -4  -4    0.03    0.06
   6  -4  -4   -0.05    0.05
  -6   4   4   -0.03    0.08
   5  -4  -4   11.55    0.27
   5  -4  -4   12.03    0.27
   5  -4  -4   12.11    0.31
  -5   4   4   12.50    0.31
   4  -4  -4    0.09    0.05
   4  -4  -4   -0.04    0.06
  -4   4   4    0.03    0.06
   3  -4  -4   12.62    0.27
   3  -4  -4   12.48    0.25
  -3   4   4   13.00    0.28
   2  -4  -4  107.03    1.11
   2  -4  -4  107.67    1.09
  -2   4   4  106.84    1.10
   1  -4  -4  174.07    1.64
  -1   4   4  172.57    1.62
   0  -4  -4    0.04    0.02
   0  -4  -4    0.03    0.04
   0   4   4   -0.02    0.03
  -1  -4  -4   30.75    0.35
  -1  -4  -4   30.52    0.41
   1   4   4   31.15    0.35
  -2  -4  -4    1.53    0.08
   2   4   4    1.58    0.10
   2   4   4    1.65    0.06
  -3  -4  -4    1.66    0.10
  -4  -4  -4    9.77    0.22
   4   4   4   10.35    0.24
  -5  -4  -4   33.95    0.48
   5   4   4   34.33    0.50
   5   4   4   33.78    0.45
  -6  -4  -4   14.62    0.31
   6   4   4   14.87    0.27
   6   4   4   14.87    0.33
  -7  -4  -4   26.14    0.45
   7   4   4   24.96    0.39
   7   4   4   26.01    0.47
  -8  -4  -4    0.81    0.11
   8   4   4    0.96    0.13
  -9  -4  -4    0.01    0.08
   9   4   4    0.04    0.09
 -10  -4  -4    0.82    0.14
  10   4   4    0.88    0.15
 -11  -4  -4    1.76    0.18
  11   4   4    1.62    0.19
   8  -5  -4   -0.01    0.10
  -8   5   4   -0.05    0.10
   7  -5  -4    0.34    0.12
  -7   5   4    0.45    0.12
   6  -5  -4    0.67    0.13
  -6   5   4    0.49    0.12
   5  -5  -4    0.64    0.08
   5  -5  -4    0.66    0.08
   5  -5  -4    0.50    0.11
  -5   5   4    0.55    0.10
   4  -5  -4    0.64    0.08
   4  -5  -4    0.59    0.10
  -4   5   4    0.43    0.09
   3  -5  -4    3.61    0.18
   3  -5  -4    3.85    0.16
  -3   5   4    3.58    0.16
   2  -5  -4   28.10    0.44
  -2   5   4   28.60    0.43
   1  -5  -4   14.76    0.29
  -1   5   4   15.51    0.27
   0  -5  -4   32.61    0.45
   0  -5  -4   32.65    0.35
   0   5   4   32.21    0.41
  -1  -5  -4    9.34    0.21
  -1  -5  -4    9.86    0.17
   1   5   4    9.25    0.17
  -2  -5  -4    4.96    0.13
  -2  -5  -4    4.98    0.16
   2   5   4    4.98    0.10
  -3  -5  -4   46.92    0.55
   3   5   4   45.24    0.58
  -4  -5  -4   11.40    0.24
   4   5   4   11.21    0.26
  -5  -5  -4    3.97    0.16
   5   5   4    4.00    0.15
   5   5   4    3.85    0.17
  -6  -5  -4    1.67    0.13
   6   5   4    1.96    0.15
   6   5   4    1.92    0.12
  -7  -5  -4   10.63    0.28
   7   5   4   10.63    0.25
   7   5   4    9.76    0.28
  -8  -5  -4    0.22    0.08
   8   5   4    0.14    0.06
   8   5   4    0.27    0.09
  -9  -5  -4    0.42    0.11
   9   5   4    0.48    0.12
 -10  -5  -4    1.42    0.16
  10   5   4    1.48    0.17
 -11  -5  -4    0.39    0.12
  11   5   4    0.50    0.14
   7  -6  -4    0.16    0.12
  -7   6   4    0.13    0.11
   6  -6  -4    1.29    0.16
  -6   6   4    1.41    0.16
   5  -6  -4    0.29    0.11
  -5   6   4    0.26    0.09
   4  -6  -4    5.21    0.19
   4  -6  -4    5.38    0.23
  -4   6   4    5.09    0.22
   3  -6  -4    4.72    0.18
   3  -6  -4    4.43    0.21
  -3   6   4    4.24    0.19
   2  -6  -4    8.31    0.25
  -2   6   4    8.12    0.23
   1  -6  -4    2.99    0.15
  -1   6   4    2.81    0.13
   0  -6  -4    4.53    0.17
   0  -6  -4    4.24    0.12
   0   6   4    4.14    0.14
  -1  -6  -4    0.06    0.04
  -1  -6  -4    0.08    0.06
   1   6   4    0.05    0.04
  -2  -6  -4   -0.04    0.04
  -2  -6  -4   -0.02    0.05
   2   6   4    0.00    0.03
  -3  -6  -4    2.14    0.12
  -3  -6  -4    1.87    0.11
  -4  -6  -4    3.17    0.14
   4   6   4    3.48    0.16
  -5  -6  -4    1.10    0.10
   5   6   4    1.04    0.11
   5   6   4    0.87    0.09
  -6  -6  -4   11.66    0.29
   6   6   4   11.75    0.27
   6   6   4   11.65    0.29
  -7  -6  -4    4.13    0.20
   7   6   4    4.31    0.21
   7   6   4    4.05    0.17
  -8  -6  -4   13.39    0.35
   8   6   4   13.02    0.35
   8   6   4   13.28    0.31
  -9  -6  -4    0.14    0.09
   9   6   4    0.18    0.07
   9   6   4    0.00    0.09
 -10  -6  -4    2.20    0.19
  10   6   4    2.01    0.19
 -11  -6  -4    0.72    0.14
  11   6   4    0.91    0.16
   6  -7  -4   -0.08    0.11
  -6   7   4    0.07    0.09
   5  -7  -4    1.07    0.15
  -5   7   4    1.03    0.15
   4  -7  -4    0.32    0.11
  -4   7   4    0.50    0.11
   3  -7  -4    3.24    0.20
   3  -7  -4    2.93    0.15
  -3   7   4    3.19    0.18
   2  -7  -4    1.14    0.12
  -2   7   4    1.51    0.13
   1  -7  -4   -0.06    0.07
  -1   7   4    0.10    0.06
   0  -7  -4    1.07    0.11
   0   7   4    0.99    0.09
  -1  -7  -4   27.67    0.45
  -1  -7  -4   28.80    0.38
   1   7   4   28.01    0.39
  -2  -7  -4    0.40    0.07
  -2  -7  -4    0.32    0.06
   2   7   4    0.46    0.05
  -3  -7  -4    0.16    0.07
  -3  -7  -4    0.15    0.06
  -4  -7  -4    1.99    0.13
  -4  -7  -4    1.84    0.13
  -5  -7  -4    0.33    0.08
   5   7   4    0.24    0.07
   5   7   4    0.17    0.08
  -6  -7  -4    0.45    0.09
   6   7   4    0.67    0.10
   6   7   4    0.40    0.08
  -7  -7  -4    0.64    0.11
   7   7   4    0.58    0.11
   7   7   4    0.50    0.09
  -8  -7  -4   12.85    0.34
   8   7   4   12.71    0.32
   8   7   4   12.07    0.34
  -9  -7  -4    0.56    0.11
   9   7   4    0.72    0.10
   9   7   4    0.76    0.13
 -10  -7  -4    0.15    0.10
  10   7   4    0.35    0.09
  10   7   4    0.50    0.12
 -11  -7  -4    0.15    0.12
  11   7   4    0.23    0.12
   5  -8  -4    0.17    0.12
  -5   8   4    0.18    0.10
   4  -8  -4    0.13    0.11
  -4   8   4    0.07    0.09
   3  -8  -4    0.03    0.10
  -3   8   4    0.02    0.08
   2  -8  -4    0.01    0.09
  -2   8   4   -0.04    0.06
   1  -8  -4    0.34    0.10
  -1   8   4    0.54    0.09
   0  -8  -4    1.24    0.13
   0   8   4    1.07    0.10
  -1  -8  -4    1.17    0.12
   1   8   4    1.37    0.10
  -2  -8  -4    0.90    0.11
  -2  -8  -4    1.07    0.10
  -3  -8  -4    0.00    0.06
  -3  -8  -4   -0.01    0.07
  -4  -8  -4    6.72    0.22
  -4  -8  -4    6.37    0.21
  -5  -8  -4    0.95    0.11
  -5  -8  -4    0.90    0.11
  -6  -8  -4    0.26    0.09
   6   8   4    0.35    0.09
   6   8   4    0.37    0.08
  -7  -8  -4    2.40    0.18
   7   8   4    2.35    0.16
   7   8   4    2.60    0.18
  -8  -8  -4    1.07    0.14
   8   8   4    0.93    0.12
   8   8   4    1.05    0.13
  -9  -8  -4    1.41    0.16
   9   8   4    0.99    0.14
   9   8   4    1.06    0.12
 -10  -8  -4    0.12    0.11
  10   8   4    0.16    0.08
  10   8   4    0.10    0.11
 -11  -8  -4    0.93    0.16
  11   8   4    1.21    0.15
   4  -9  -4    0.35    0.13
  -4   9   4    0.43    0.12
   3  -9  -4    0.36    0.13
  -3   9   4    0.18    0.09
   2  -9  -4    3.81    0.24
  -2   9   4    3.82    0.20
   1  -9  -4    3.77    0.22
  -1   9   4    4.08    0.19
   0  -9  -4    0.78    0.12
   0   9   4    0.82    0.10
  -1  -9  -4    0.01    0.08
  -2  -9  -4    2.71    0.17
  -3  -9  -4    0.82    0.11
  -3  -9  -4    0.74    0.10
  -4  -9  -4    2.03    0.16
  -4  -9  -4    1.89    0.15
  -5  -9  -4    0.90    0.11
  -5  -9  -4    0.83    0.11
  -6  -9  -4    0.68    0.11
  -6  -9  -4    0.71    0.11
  -7  -9  -4    0.22    0.10
  -7  -9  -4    0.18    0.08
   7   9   4    0.30    0.09
  -8  -9  -4   -0.15    0.09
   8   9   4    0.12    0.08
   8   9   4   -0.02    0.09
  -9  -9  -4    4.44    0.25
   9   9   4    3.85    0.22
   9   9   4    4.23    0.28
 -10  -9  -4    0.04    0.11
  10   9   4    0.30    0.10
  -3  10   4    0.44    0.12
   2 -10  -4    0.18    0.12
  -2  10   4    0.08    0.08
   1 -10  -4    0.18    0.12
  -1  10   4    0.09    0.08
   0 -10  -4    0.19    0.11
  -1 -10  -4    0.07    0.10
  -2 -10  -4    1.92    0.17
  -3 -10  -4    1.04    0.13
  -4 -10  -4    3.03    0.19
  -4 -10  -4    2.65    0.18
  -5 -10  -4    8.44    0.28
  -5 -10  -4    8.79    0.28
  -6 -10  -4    0.31    0.11
  -6 -10  -4    0.22    0.09
  -7 -10  -4   -0.01    0.09
  -7 -10  -4    0.01    0.08
  -8 -10  -4    0.02    0.10
   8  10   4   -0.02    0.07
  -9 -10  -4    0.01    0.11
   9  10   4    0.07    0.08
 -10 -10  -4    0.58    0.15
  10  10   4    0.60    0.12
   1 -11  -4   -0.18    0.12
   0 -11  -4    0.05    0.12
  -1 -11  -4   -0.13    0.10
  -2 -11  -4   -0.18    0.09
  -3 -11  -4    1.71    0.17
  -4 -11  -4    2.01    0.17
  -5 -11  -4    0.00    0.09
  -5 -11  -4   -0.01    0.11
  -6 -11  -4    0.00    0.10
  -6 -11  -4    0.08    0.11
  -7 -11  -4    0.09    0.10
  -8 -11  -4   -0.01    0.11
  -9 -11  -4    0.57    0.15
   9  11   4    0.56    0.12
  -1 -12  -4    0.51    0.14
  -2 -12  -4   -0.06    0.11
  -3 -12  -4    0.02    0.09
  -4 -12  -4    0.31    0.12
  -7 -12  -4    0.08    0.11
   6   9  -5    0.17    0.09
  -6  -9   5    0.19    0.13
  -5  -9   5    0.15    0.13
   4   9  -5   -0.12    0.09
  -4  -9   5    0.04    0.12
   3   9  -5    0.99    0.14
  -3  -9   5    0.78    0.17
   2   9  -5    0.43    0.12
  -2  -9   5    0.59    0.15
   1   9  -5    0.65    0.13
  -1  -9   5    0.72    0.16
   8   8  -5    0.22    0.10
  -8  -8   5    0.50    0.14
   7   8  -5    0.34    0.11
  -7  -8   5    0.32    0.14
   6   8  -5    3.15    0.22
  -6  -8   5    3.81    0.27
   5   8  -5    0.62    0.11
   5   8  -5    0.69    0.12
  -5  -8   5    0.86    0.16
   4   8  -5    0.04    0.09
   4   8  -5    0.05    0.13
  -4  -8   5    0.11    0.11
   3   8  -5    0.29    0.10
  -3  -8   5    0.21    0.12
   2   8  -5    0.03    0.09
  -2  -8   5   -0.07    0.11
   1   8  -5    0.05    0.09
  -1  -8   5    0.27    0.13
   0   8  -5    0.59    0.13
   0  -8   5    0.55    0.15
  -1   8  -5   -0.05    0.09
   1  -8   5    0.07    0.12
   9   7  -5   -0.01    0.09
  -9  -7   5    0.10    0.11
   8   7  -5    1.73    0.17
  -8  -7   5    1.75    0.19
   7   7  -5    3.30    0.21
  -7  -7   5    3.88    0.25
   6   7  -5    0.51    0.10
   6   7  -5    0.60    0.11
  -6  -7   5    0.65    0.14
   5   7  -5    0.21    0.09
   5   7  -5    0.28    0.09
  -5  -7   5    0.19    0.11
   4   7  -5   -0.03    0.07
   4   7  -5   -0.03    0.07
  -4  -7   5   -0.07    0.09
   3   7  -5    2.27    0.17
   3   7  -5    1.84    0.17
  -3  -7   5    1.92    0.19
   2   7  -5    0.65    0.11
  -2  -7   5    0.55    0.13
   1   7  -5    1.20    0.14
  -1  -7   5    1.23    0.16
   0   7  -5    1.08    0.14
   0  -7   5    1.16    0.16
  -1   7  -5    0.92    0.14
   1  -7   5    0.78    0.15
  -2   7  -5    0.47    0.12
   2  -7   5    0.60    0.14
  -3   7  -5    0.00    0.10
   3  -7   5   -0.02    0.11
  10   6  -5    0.55    0.12
 -10  -6   5    0.64    0.14
   9   6  -5    1.10    0.15
  -9  -6   5    1.38    0.17
   8   6  -5    1.54    0.16
  -8  -6   5    1.49    0.17
   7   6  -5   -0.11    0.07
  -7  -6   5    0.03    0.10
  -7  -6   5    0.03    0.09
   6   6  -5    0.01    0.08
  -6  -6   5   -0.01    0.09
  -6  -6   5   -0.17    0.08
   5   6  -5    1.68    0.14
   5   6  -5    1.84    0.15
  -5  -6   5    1.56    0.16
   4   6  -5    4.47    0.20
   4   6  -5    4.00    0.19
  -4  -6   5    4.07    0.23
   3   6  -5   12.87    0.30
   3   6  -5   13.10    0.33
  -3  -6   5   13.34    0.37
   2   6  -5    4.20    0.20
  -2  -6   5    4.61    0.24
   1   6  -5    0.58    0.10
  -1  -6   5    0.57    0.13
   0   6  -5    2.08    0.16
   0  -6   5    2.22    0.20
  -1   6  -5    0.74    0.12
   1  -6   5    0.71    0.14
  -2   6  -5    3.00    0.20
   2  -6   5    3.05    0.22
  -3   6  -5   -0.09    0.09
   3  -6   5    0.02    0.10
  -4   6  -5   -0.09    0.09
   4  -6   5    0.03    0.08
   4  -6   5    0.00    0.10
  -5   6  -5    1.03    0.18
   5  -6   5    0.74    0.14
  10   5  -5    0.57    0.12
 -10  -5   5    0.36    0.11
   9   5  -5    0.18    0.09
  -9  -5   5    0.24    0.10
   8   5  -5   -0.05    0.08
  -8  -5   5   -0.01    0.10
  -8  -5   5   -0.01    0.08
   7   5  -5   -0.05    0.07
  -7  -5   5    0.02    0.08
  -7  -5   5   -0.09    0.09
   6   5  -5    0.07    0.07
  -6  -5   5    0.03    0.08
  -6  -5   5    0.03    0.09
   5   5  -5    0.62    0.09
  -5  -5   5    0.69    0.11
  -5  -5   5    0.57    0.11
   4   5  -5    5.49    0.20
   4   5  -5    5.33    0.20
  -4  -5   5    5.37    0.23
   3   5  -5    4.13    0.18
   3   5  -5    3.99    0.16
  -3  -5   5    3.80    0.21
   2   5  -5   23.20    0.42
   2   5  -5   22.82    0.37
  -2  -5   5   22.94    0.46
   1   5  -5    1.89    0.15
  -1  -5   5    2.27    0.18
   0   5  -5    9.30    0.27
   0  -5   5    9.74    0.31
  -1   5  -5    1.41    0.13
   1  -5   5    1.19    0.15
  -2   5  -5    6.05    0.24
   2  -5   5    6.04    0.21
   2  -5   5    6.45    0.27
  -3   5  -5    0.09    0.09
   3  -5   5    0.18    0.08
   3  -5   5    0.07    0.10
  -4   5  -5    0.91    0.14
   4  -5   5    1.14    0.14
   4  -5   5    0.82    0.14
  -5   5  -5    1.30    0.16
   5  -5   5    1.12    0.14
   5  -5   5    1.06    0.15
  -6   5  -5    2.43    0.22
   6  -5   5    2.58    0.22
   6  -5   5    2.08    0.27
  10   4  -5    0.18    0.10
   9   4  -5    1.75    0.16
  -9  -4   5    2.19    0.18
  -9  -4   5    1.98    0.18
   8   4  -5    1.09    0.13
  -8  -4   5    1.27    0.15
  -8  -4   5    1.14    0.13
   7   4  -5    8.32    0.27
  -7  -4   5    8.17    0.27
  -7  -4   5    8.10    0.28
   6   4  -5    1.06    0.11
  -6  -4   5    1.18    0.13
  -6  -4   5    1.36    0.14
   5   4  -5    0.20    0.07
  -5  -4   5    0.23    0.09
  -5  -4   5    0.40    0.10
   4   4  -5   10.84    0.26
  -4  -4   5   10.24    0.28
  -4  -4   5   10.80    0.30
   3   4  -5    1.23    0.10
   3   4  -5    1.38    0.12
  -3  -4   5    1.30    0.13
  -3  -4   5    1.23    0.12
   2   4  -5    0.21    0.06
   2   4  -5    0.04    0.06
  -2  -4   5    0.24    0.09
   1   4  -5   19.32    0.37
   1   4  -5   18.86    0.30
  -1  -4   5   19.30    0.40
   0   4  -5    7.41    0.23
   0  -4   5    8.03    0.26
  -1   4  -5    4.69    0.19
   1  -4   5    4.39    0.16
   1  -4   5    4.65    0.22
  -2   4  -5    8.87    0.26
   2  -4   5    8.98    0.24
   2  -4   5    9.57    0.30
  -3   4  -5   21.82    0.44
   3  -4   5   23.42    0.43
   3  -4   5   22.12    0.47
  -4   4  -5   -0.01    0.08
   4  -4   5   -0.13    0.09
   4  -4   5   -0.09    0.06
  -5   4  -5    1.23    0.15
   5  -4   5    1.34    0.15
   5  -4   5    1.50    0.17
  -6   4  -5    0.38    0.12
   6  -4   5    0.25    0.12
   6  -4   5    0.34    0.11
  -7   4  -5    0.57    0.13
  -7   4  -5    0.79    0.14
   7  -4   5    0.50    0.13
  11   3  -5    0.15    0.10
  10   3  -5   -0.08    0.08
 -10  -3   5    0.11    0.13
   9   3  -5    0.03    0.08
  -9  -3   5    0.07    0.10
   8   3  -5    1.18    0.12
  -8  -3   5    1.43    0.14
  -8  -3   5    1.25    0.15
   7   3  -5    2.07    0.16
   7   3  -5    2.23    0.16
  -7  -3   5    2.17    0.15
  -7  -3   5    2.24    0.18
   6   3  -5   13.72    0.31
   6   3  -5   13.80    0.31
  -6  -3   5   13.33    0.33
  -6  -3   5   13.23    0.31
   5   3  -5    0.12    0.06
   5   3  -5    0.00    0.06
  -5  -3   5    0.05    0.07
  -5  -3   5    0.01    0.08
   4   3  -5   13.20    0.28
   4   3  -5   13.94    0.28
  -4  -3   5   13.89    0.31
  -4  -3   5   13.20    0.31
   3   3  -5    3.39    0.14
   3   3  -5    3.44    0.14
  -3  -3   5    3.27    0.17
  -3  -3   5    3.26    0.16
   2   3  -5    0.61    0.07
   2   3  -5    0.54    0.07
  -2  -3   5    0.79    0.10
  -2  -3   5    0.62    0.09
   1   3  -5    4.17    0.16
   1   3  -5    4.39    0.14
  -1  -3   5    4.57    0.19
   0   3  -5    3.07    0.15
   0   3  -5    3.02    0.11
   0  -3   5    3.06    0.11
   0  -3   5    2.99    0.16
  -1   3  -5   24.23    0.41
   1  -3   5   24.48    0.36
   1  -3   5   25.07    0.45
  -2   3  -5    0.23    0.08
   2  -3   5    0.24    0.06
   2  -3   5    0.31    0.09
  -3   3  -5    0.07    0.07
   3  -3   5    0.20    0.07
   3  -3   5    0.16    0.09
  -4   3  -5   11.91    0.31
   4  -3   5   12.16    0.34
   4  -3   5   12.20    0.31
  -5   3  -5    0.02    0.08
   5  -3   5    0.03    0.07
   5  -3   5    0.00    0.09
  -6   3  -5    3.04    0.21
   6  -3   5    2.86    0.21
   6  -3   5    3.15    0.20
  -7   3  -5    0.36    0.10
  -7   3  -5    0.18    0.10
   7  -3   5    0.20    0.10
  -8   3  -5    3.67    0.25
  -8   3  -5    3.72    0.26
   8  -3   5    3.93    0.26
  11   2  -5    0.02    0.09
  10   2  -5    0.08    0.09
 -10  -2   5    0.13    0.10
   9   2  -5   -0.11    0.07
   9   2  -5   -0.09    0.07
  -9  -2   5   -0.04    0.10
   8   2  -5    4.28    0.21
   8   2  -5    3.86    0.20
  -8  -2   5    3.91    0.22
  -8  -2   5    4.31    0.22
   7   2  -5   16.53    0.36
   7   2  -5   16.32    0.35
  -7  -2   5   15.78    0.37
  -7  -2   5   16.31    0.34
   6   2  -5    2.08    0.14
   6   2  -5    2.21    0.15
  -6  -2   5    2.22    0.16
  -6  -2   5    2.15    0.14
   5   2  -5    2.69    0.14
   5   2  -5    2.57    0.14
  -5  -2   5    2.37    0.13
  -5  -2   5    2.47    0.16
   4   2  -5   15.71    0.29
   4   2  -5   14.97    0.29
  -4  -2   5   16.28    0.31
  -4  -2   5   15.75    0.33
   3   2  -5    2.03    0.12
   3   2  -5    1.87    0.11
  -3  -2   5    1.87    0.12
  -3  -2   5    1.83    0.13
   2   2  -5    8.34    0.19
   2   2  -5    8.50    0.19
  -2  -2   5    8.31    0.22
  -2  -2   5    7.88    0.22
   1   2  -5   28.69    0.37
   1   2  -5   28.78    0.37
  -1  -2   5   28.72    0.32
  -1  -2   5   28.59    0.44
  -1  -2   5   28.51    0.44
   0   2  -5   14.26    0.22
   0   2  -5   14.74    0.22
   0   2  -5   14.34    0.28
   0  -2   5   14.10    0.22
   0  -2   5   13.87    0.30
  -1   2  -5    1.68    0.07
  -1   2  -5    1.89    0.12
   1  -2   5    1.70    0.13
   1  -2   5    1.72    0.09
  -2   2  -5    1.20    0.11
   2  -2   5    1.05    0.11
   2  -2   5    1.38    0.10
  -3   2  -5    0.42    0.08
   3  -2   5    0.30    0.07
   3  -2   5    0.33    0.09
  -4   2  -5   42.26    0.60
   4  -2   5   40.50    0.60
   4  -2   5   41.42    0.64
  -5   2  -5    0.33    0.09
   5  -2   5    0.23    0.08
   5  -2   5    0.31    0.10
  -6   2  -5    4.75    0.21
   6  -2   5    4.50    0.22
   6  -2   5    4.60    0.23
  -7   2  -5    0.12    0.09
  -7   2  -5    0.09    0.08
   7  -2   5    0.13    0.10
  -8   2  -5    0.44    0.11
  -8   2  -5    0.56    0.12
   8  -2   5    0.68    0.15
  10   1  -5    1.01    0.13
  10   1  -5    0.93    0.12
 -10  -1   5    0.80    0.15
   9   1  -5    5.25    0.23
   9   1  -5    4.86    0.23
  -9  -1   5    5.00    0.26
   8   1  -5    5.31    0.22
   8   1  -5    5.15    0.21
  -8  -1   5    5.45    0.24
   7   1  -5    5.86    0.21
   7   1  -5    6.16    0.22
  -7  -1   5    5.65    0.23
  -7  -1   5    6.19    0.24
   6   1  -5   18.49    0.35
   6   1  -5   19.05    0.36
  -6  -1   5   18.32    0.33
  -6  -1   5   18.20    0.38
   5   1  -5    1.97    0.13
   5   1  -5    2.10    0.13
  -5  -1   5    1.93    0.12
  -5  -1   5    1.81    0.14
   4   1  -5    0.05    0.05
   4   1  -5    0.02    0.05
  -4  -1   5    0.16    0.05
  -4  -1   5    0.09    0.07
   3   1  -5    5.39    0.08
   3   1  -5    5.28    0.16
   3   1  -5    5.37    0.16
  -3  -1   5    5.20    0.16
  -3  -1   5    5.10    0.18
   2   1  -5   28.90    0.38
   2   1  -5   28.99    0.39
   2   1  -5   28.40    0.28
  -2  -1   5   28.48    0.43
  -2  -1   5   28.70    0.41
   1   1  -5   52.10    0.57
   1   1  -5   52.70    0.57
  -1  -1   5   51.38    0.63
  -1  -1   5   52.73    0.52
  -1  -1   5   52.89    0.64
   0   1  -5    0.47    0.06
   0   1  -5    0.46    0.05
   0   1  -5    0.40    0.04
   0  -1   5    0.46    0.07
   0  -1   5    0.41    0.05
   0  -1   5    0.45    0.07
  -1   1  -5   29.60    0.33
  -1   1  -5   28.98    0.41
  -1   1  -5   29.83    0.33
   1  -1   5   28.62    0.38
   1  -1   5   29.48    0.44
  -2   1  -5    0.23    0.03
  -2   1  -5    0.23    0.03
  -2   1  -5    0.25    0.06
   2  -1   5    0.16    0.06
   2  -1   5    0.28    0.05
  -3   1  -5    9.45    0.23
   3  -1   5    9.84    0.23
   3  -1   5    9.73    0.26
  -4   1  -5   19.94    0.35
   4  -1   5   19.59    0.37
   4  -1   5   19.68    0.39
  -5   1  -5   23.32    0.41
   5  -1   5   23.08    0.44
   5  -1   5   23.51    0.45
  -6   1  -5   -0.13    0.06
  -6   1  -5    0.02    0.07
   6  -1   5    0.06    0.08
   6  -1   5    0.05    0.09
  -7   1  -5    4.56    0.22
  -7   1  -5    4.93    0.22
   7  -1   5    5.14    0.25
  -8   1  -5    4.14    0.23
  -8   1  -5    3.85    0.21
   8  -1   5    4.11    0.26
  -9   1  -5    2.36    0.20
   9  -1   5    2.67    0.23
  10   0  -5    0.26    0.10
  10   0  -5    0.35    0.10
 -10   0   5    0.42    0.13
   9   0  -5    0.72    0.11
   9   0  -5    0.31    0.09
  -9   0   5    0.79    0.14
   8   0  -5    0.21    0.08
   8   0  -5    0.09    0.07
  -8   0   5    0.36    0.10
   7   0  -5    0.89    0.10
   7   0  -5    0.71    0.10
  -7   0   5    0.96    0.12
   6   0  -5    1.99    0.14
   6   0  -5    2.02    0.14
  -6   0   5    1.95    0.15
   5   0  -5    6.60    0.16
   5   0  -5    6.68    0.20
   5   0  -5    6.84    0.20
  -5   0   5    6.34    0.17
  -5   0   5    6.66    0.22
   4   0  -5    3.77    0.15
   4   0  -5    3.98    0.11
   4   0  -5    3.89    0.15
  -4   0   5    3.83    0.13
  -4   0   5    4.00    0.17
   3   0  -5   76.41    0.73
   3   0  -5   76.82    0.82
   3   0  -5   76.16    0.82
  -3   0   5   76.37    0.86
  -3   0   5   75.36    0.79
   2   0  -5    2.42    0.11
   2   0  -5    2.40    0.07
   2   0  -5    2.31    0.11
  -2   0   5    1.97    0.12
  -2   0   5    2.39    0.10
   1   0  -5    2.28    0.10
   1   0  -5    2.09    0.10
  -1   0   5    2.08    0.11
  -1   0   5    2.10    0.07
  -1   0   5    2.28    0.11
   0   0  -5    0.14    0.04
   0   0  -5    0.17    0.04
   0   0   5    0.06    0.04
   0   0   5    0.06    0.05
   0   0   5    0.06    0.06
  -1   0  -5    8.85    0.19
  -1   0  -5    8.81    0.15
  -1   0  -5    8.56    0.15
   1   0   5    8.49    0.18
   1   0   5    9.01    0.21
  -2   0  -5   46.25    0.46
  -2   0  -5   46.44    0.46
  -2   0  -5   47.11    0.55
   2   0   5   45.89    0.55
   2   0   5   46.48    0.60
  -3   0  -5   11.14    0.16
  -3   0  -5   10.77    0.22
  -3   0  -5   11.01    0.16
   3   0   5   10.73    0.26
   3   0   5   10.88    0.24
  -4   0  -5    3.14    0.14
   4   0   5    3.59    0.16
   4   0   5    3.46    0.17
  -5   0  -5    0.82    0.09
   5   0   5    0.77    0.11
   5   0   5    0.72    0.10
  -6   0  -5    3.40    0.16
  -6   0  -5    3.29    0.18
   6   0   5    3.32    0.19
  -7   0  -5    5.42    0.22
  -7   0  -5    4.77    0.20
   7   0   5    5.37    0.24
  -8   0  -5    0.07    0.08
  -8   0  -5    0.04    0.08
   8   0   5    0.08    0.09
  -9   0  -5    5.76    0.26
   9   0   5    4.91    0.28
 -10   0  -5    0.40    0.12
 -10   1   5    0.08    0.11
   9  -1  -5   -0.03    0.07
   9  -1  -5    0.11    0.07
  -9   1   5   -0.03    0.10
   8  -1  -5    3.40    0.18
   8  -1  -5    3.42    0.18
  -8   1   5    3.16    0.21
   7  -1  -5    1.98    0.14
   7  -1  -5    1.89    0.14
   7  -1  -5    2.03    0.14
  -7   1   5    1.81    0.16
   6  -1  -5   12.59    0.29
   6  -1  -5   12.89    0.27
   6  -1  -5   12.92    0.29
  -6   1   5   12.32    0.32
   5  -1  -5    0.42    0.07
   5  -1  -5    0.35    0.06
   5  -1  -5    0.32    0.07
  -5   1   5    0.35    0.09
   4  -1  -5    1.47    0.09
   4  -1  -5    1.60    0.11
   4  -1  -5    1.50    0.11
  -4   1   5    1.30    0.08
  -4   1   5    1.34    0.11
   3  -1  -5   22.24    0.35
   3  -1  -5   23.19    0.30
   3  -1  -5   22.47    0.35
  -3   1   5   23.30    0.37
  -3   1   5   22.57    0.30
   2  -1  -5    2.11    0.10
   2  -1  -5    1.96    0.08
   2  -1  -5    2.20    0.10
  -2   1   5    2.07    0.11
  -2   1   5    2.02    0.08
   1  -1  -5   28.40    0.33
   1  -1  -5   28.48    0.37
  -1   1   5   28.17    0.36
  -1   1   5   27.84    0.39
   0  -1  -5    6.17    0.14
   0   1   5    6.37    0.15
   0   1   5    6.06    0.16
   0   1   5    6.16    0.14
  -1  -1  -5    5.28    0.12
   1   1   5    5.35    0.14
   1   1   5    5.07    0.15
   1   1   5    5.27    0.14
  -2  -1  -5   21.27    0.26
  -2  -1  -5   20.66    0.29
   2   1   5   20.83    0.32
   2   1   5   20.83    0.34
  -3  -1  -5   22.42    0.32
   3   1   5   22.46    0.37
   3   1   5   22.45    0.36
  -4  -1  -5    0.10    0.05
   4   1   5    0.03    0.06
   4   1   5    0.11    0.07
  -5  -1  -5   31.72    0.49
  -5  -1  -5   32.47    0.44
   5   1   5   32.44    0.51
  -6  -1  -5   -0.01    0.05
  -6  -1  -5   -0.04    0.07
   6   1   5   -0.09    0.06
  -7  -1  -5    5.55    0.19
  -7  -1  -5    6.10    0.23
   7   1   5    6.17    0.24
  -8  -1  -5    1.09    0.13
   8   1   5    1.20    0.15
  -9  -1  -5    0.10    0.09
   9   1   5    0.11    0.11
 -10  -1  -5    0.20    0.11
  10   1   5    0.17    0.12
 -10   2   5    1.28    0.17
  -9   2   5    0.00    0.10
   8  -2  -5    0.94    0.13
   8  -2  -5    0.93    0.11
   8  -2  -5    0.99    0.11
  -8   2   5    1.09    0.15
   7  -2  -5    0.75    0.10
   7  -2  -5    0.77    0.10
   7  -2  -5    0.72    0.10
  -7   2   5    0.73    0.12
   6  -2  -5    0.79    0.09
   6  -2  -5    0.78    0.10
   6  -2  -5    0.82    0.09
  -6   2   5    0.81    0.12
   5  -2  -5    0.08    0.06
   5  -2  -5    0.03    0.05
   5  -2  -5   -0.07    0.05
  -5   2   5    0.08    0.07
   4  -2  -5    0.80    0.08
   4  -2  -5    0.84    0.08
   4  -2  -5    0.79    0.08
  -4   2   5    0.72    0.09
   3  -2  -5    2.61    0.12
   3  -2  -5    2.52    0.11
   3  -2  -5    2.57    0.12
  -3   2   5    2.68    0.13
  -3   2   5    2.55    0.07
   2  -2  -5   -0.02    0.04
   2  -2  -5    0.03    0.04
  -2   2   5    0.00    0.03
  -2   2   5    0.02    0.04
   1  -2  -5    9.59    0.18
   1  -2  -5    9.19    0.20
  -1   2   5    9.30    0.20
  -1   2   5    9.56    0.16
   0  -2  -5    3.51    0.12
   0   2   5    3.65    0.12
   0   2   5    3.55    0.11
   0   2   5    3.66    0.10
   1   2   5    9.31    0.19
   1   2   5    8.60    0.18
   1   2   5    9.34    0.18
  -2  -2  -5   30.15    0.36
   2   2   5   30.68    0.37
   2   2   5   30.89    0.41
   2   2   5   30.05    0.41
  -3  -2  -5    0.32    0.05
  -3  -2  -5    0.26    0.06
   3   2   5    0.35    0.07
  -4  -2  -5   25.44    0.33
  -4  -2  -5   25.16    0.39
   4   2   5   25.15    0.41
  -5  -2  -5    2.19    0.10
  -5  -2  -5    1.94    0.13
   5   2   5    2.14    0.14
  -6  -2  -5    2.95    0.13
  -6  -2  -5    3.05    0.17
   6   2   5    2.83    0.17
  -7  -2  -5   10.20    0.29
   7   2   5    9.99    0.30
  -8  -2  -5    0.33    0.09
   8   2   5    0.18    0.10
  -9  -2  -5    0.12    0.09
   9   2   5    0.27    0.12
 -10  -2  -5    7.06    0.30
  10   2   5    6.77    0.32
   9  -3  -5    0.02    0.10
  -9   3   5    0.02    0.10
   8  -3  -5    0.61    0.13
   8  -3  -5    0.88    0.13
   8  -3  -5    0.69    0.13
  -8   3   5    0.92    0.14
   7  -3  -5    3.54    0.18
   7  -3  -5    3.47    0.20
   7  -3  -5    3.30    0.17
  -7   3   5    3.76    0.22
   6  -3  -5    2.45    0.15
   6  -3  -5    2.35    0.15
   6  -3  -5    2.31    0.16
  -6   3   5    2.37    0.17
   5  -3  -5    4.15    0.18
   5  -3  -5    4.58    0.19
   5  -3  -5    4.48    0.18
  -5   3   5    4.69    0.20
   4  -3  -5    1.00    0.09
   4  -3  -5    0.91    0.09
   4  -3  -5    1.04    0.10
  -4   3   5    1.00    0.11
   3  -3  -5   16.68    0.31
   3  -3  -5   16.85    0.30
  -3   3   5   16.82    0.32
   2  -3  -5    4.39    0.15
   2  -3  -5    4.71    0.15
  -2   3   5    4.39    0.15
   1  -3  -5   13.63    0.25
   1  -3  -5   13.65    0.24
   1  -3  -5   13.37    0.16
  -1   3   5   13.40    0.25
   0  -3  -5    3.44    0.12
   0  -3  -5    3.63    0.09
   0   3   5    3.27    0.11
  -1  -3  -5    2.87    0.09
   1   3   5    2.91    0.10
   1   3   5    2.86    0.12
  -2  -3  -5  137.98    1.32
   2   3   5  139.87    1.28
   2   3   5  141.60    1.37
  -3  -3  -5    2.27    0.07
  -3  -3  -5    2.23    0.11
   3   3   5    2.10    0.12
  -4  -3  -5    0.15    0.04
  -4  -3  -5    0.07    0.05
   4   3   5    0.25    0.07
  -5  -3  -5    2.27    0.13
  -5  -3  -5    2.42    0.09
   5   3   5    2.36    0.14
  -6  -3  -5    8.04    0.24
   6   3   5    7.91    0.25
  -7  -3  -5    8.29    0.26
   7   3   5    8.40    0.28
  -8  -3  -5    0.37    0.09
   8   3   5    0.17    0.10
  -9  -3  -5    0.02    0.09
   9   3   5    0.02    0.10
 -10  -3  -5    1.81    0.18
  10   3   5    1.36    0.18
 -11  -3  -5    0.40    0.13
  11   3   5    0.10    0.12
   9  -4  -5    0.58    0.14
  -9   4   5    0.33    0.13
   8  -4  -5    1.42    0.16
  -8   4   5    1.25    0.16
   7  -4  -5    2.03    0.17
   7  -4  -5    2.07    0.15
   7  -4  -5    1.70    0.14
  -7   4   5    1.58    0.16
   6  -4  -5    0.21    0.07
   6  -4  -5    0.25    0.07
   6  -4  -5    0.33    0.10
  -6   4   5    0.27    0.09
   5  -4  -5   15.73    0.35
   5  -4  -5   16.51    0.33
   5  -4  -5   16.23    0.33
  -5   4   5   15.59    0.36
   4  -4  -5    9.05    0.25
   4  -4  -5    8.95    0.24
  -4   4   5    8.92    0.25
   3  -4  -5    0.13    0.06
   3  -4  -5    0.06    0.06
  -3   4   5    0.08    0.06
   2  -4  -5   57.50    0.69
   2  -4  -5   58.44    0.69
  -2   4   5   57.95    0.69
   1  -4  -5   17.77    0.30
  -1   4   5   17.24    0.29
   0  -4  -5   65.80    0.62
   0  -4  -5   65.35    0.73
   0   4   5   65.74    0.70
  -1  -4  -5    0.04    0.03
  -1  -4  -5    0.07    0.05
   1   4   5    0.01    0.03
  -2  -4  -5    1.01    0.08
   2   4   5    1.00    0.06
   2   4   5    1.20    0.09
  -3  -4  -5    0.09    0.05
  -3  -4  -5    0.04    0.02
   3   4   5   -0.03    0.05
  -4  -4  -5    6.20    0.12
  -4  -4  -5    5.95    0.18
   4   4   5    6.26    0.20
  -5  -4  -5    7.85    0.22
   5   4   5    7.62    0.23
  -6  -4  -5   11.55    0.28
   6   4   5   12.05    0.31
  -7  -4  -5   11.14    0.30
   7   4   5   11.52    0.32
  -8  -4  -5    1.39    0.14
   8   4   5    0.97    0.13
  -9  -4  -5    0.70    0.12
   9   4   5    0.66    0.13
 -10  -4  -5    0.79    0.13
  10   4   5    0.90    0.15
 -11  -4  -5    0.02    0.10
  11   4   5    0.15    0.13
   8  -5  -5    0.00    0.11
  -8   5   5    0.02    0.10
   7  -5  -5   -0.12    0.10
  -7   5   5   -0.03    0.09
   6  -5  -5    0.17    0.07
   6  -5  -5    0.12    0.10
   6  -5  -5    0.13    0.07
  -6   5   5    0.19    0.10
   5  -5  -5    0.97    0.10
   5  -5  -5    0.92    0.10
   5  -5  -5    1.02    0.13
  -5   5   5    1.02    0.13
   4  -5  -5    1.40    0.11
   4  -5  -5    1.16    0.13
  -4   5   5    1.33    0.13
   3  -5  -5    2.15    0.15
   3  -5  -5    1.96    0.13
  -3   5   5    2.05    0.14
   2  -5  -5   28.57    0.45
   2  -5  -5   21.46    3.04
  -2   5   5   28.75    0.44
   1  -5  -5    3.27    0.15
  -1   5   5    3.20    0.13
   0  -5  -5   46.27    0.58
   0  -5  -5   45.63    0.46
   0   5   5   45.25    0.54
  -1  -5  -5    0.36    0.04
  -1  -5  -5    0.25    0.06
   1   5   5    0.34    0.05
  -2  -5  -5    8.16    0.21
  -2  -5  -5    8.76    0.18
   2   5   5    8.60    0.15
  -3  -5  -5   11.97    0.23
   3   5   5   12.23    0.17
  -4  -5  -5    2.04    0.12
   4   5   5    2.04    0.13
  -5  -5  -5    2.70    0.14
   5   5   5    3.14    0.16
  -6  -5  -5    5.94    0.21
   6   5   5    5.29    0.22
  -7  -5  -5    1.46    0.14
   7   5   5    1.61    0.12
   7   5   5    1.34    0.13
  -8  -5  -5   -0.03    0.08
   8   5   5   -0.03    0.08
  -9  -5  -5    0.26    0.10
   9   5   5    0.41    0.12
 -10  -5  -5    0.32    0.11
  10   5   5    0.28    0.12
 -11  -5  -5    0.50    0.14
  11   5   5    0.55    0.14
   7  -6  -5    0.91    0.16
  -7   6   5    0.50    0.13
   6  -6  -5    0.59    0.13
  -6   6   5    0.37    0.11
   5  -6  -5    2.54    0.20
   5  -6  -5    2.60    0.16
  -5   6   5    2.37    0.18
   4  -6  -5    1.32    0.12
   4  -6  -5    1.69    0.16
  -4   6   5    1.35    0.14
   3  -6  -5    0.09    0.08
   3  -6  -5    0.04    0.06
  -3   6   5    0.04    0.07
   2  -6  -5   15.68    0.34
  -2   6   5   15.78    0.32
   1  -6  -5    1.02    0.11
  -1   6   5    0.89    0.09
   0  -6  -5    2.30    0.14
   0   6   5    2.23    0.11
  -1  -6  -5    1.16    0.08
  -1  -6  -5    1.09    0.10
   1   6   5    1.27    0.08
  -2  -6  -5   13.23    0.28
  -2  -6  -5   13.26    0.23
   2   6   5   13.44    0.21
  -3  -6  -5   60.38    0.68
  -3  -6  -5   56.83    0.71
  -4  -6  -5    2.12    0.12
   4   6   5    1.95    0.14
  -5  -6  -5    0.18    0.07
   5   6   5    0.15    0.07
  -6  -6  -5    1.30    0.12
   6   6   5    1.20    0.13
  -7  -6  -5   -0.05    0.07
   7   6   5    0.08    0.05
   7   6   5    0.04    0.09
  -8  -6  -5    8.94    0.29
   8   6   5    8.66    0.30
   8   6   5    8.63    0.25
  -9  -6  -5    0.04    0.09
   9   6   5    0.13    0.10
 -10  -6  -5   -0.02    0.10
  10   6   5    0.05    0.11
 -11  -6  -5    2.67    0.22
  11   6   5    2.54    0.23
   6  -7  -5    0.51    0.14
  -6   7   5    0.81    0.15
   5  -7  -5    1.08    0.16
  -5   7   5    0.75    0.13
   4  -7  -5    2.22    0.19
   4  -7  -5    2.54    0.16
  -4   7   5    2.40    0.18
   3  -7  -5    0.69    0.12
   3  -7  -5    0.63    0.09
  -3   7   5    0.64    0.10
   2  -7  -5    0.42    0.10
  -2   7   5    0.47    0.09
   1  -7  -5    1.49    0.13
  -1   7   5    1.55    0.12
   0   7   5    6.01    0.18
  -1  -7  -5    7.34    0.23
   1   7   5    7.05    0.18
  -2  -7  -5    1.81    0.13
  -2  -7  -5    2.04    0.11
  -3  -7  -5    2.18    0.14
  -3  -7  -5    1.94    0.12
  -4  -7  -5    1.75    0.13
  -4  -7  -5    1.86    0.13
  -5  -7  -5    0.07    0.07
   5   7   5    0.08    0.07
  -6  -7  -5   10.68    0.29
   6   7   5   11.09    0.30
  -7  -7  -5   13.02    0.34
   7   7   5   13.59    0.36
   7   7   5   13.21    0.32
  -8  -7  -5    0.00    0.09
   8   7   5   -0.05    0.06
   8   7   5    0.00    0.09
  -9  -7  -5    0.80    0.13
   9   7   5    0.66    0.10
   9   7   5    0.82    0.14
 -10  -7  -5    1.42    0.17
  10   7   5    1.43    0.18
 -11  -7  -5    0.00    0.11
  11   7   5   -0.06    0.11
   5  -8  -5   -0.05    0.12
  -5   8   5    0.08    0.09
   4  -8  -5    0.82    0.15
  -4   8   5    0.51    0.12
   3  -8  -5    0.49    0.09
   3  -8  -5    0.59    0.13
  -3   8   5    0.64    0.11
   2  -8  -5    0.45    0.11
  -2   8   5    0.33    0.09
   1  -8  -5    0.09    0.08
  -1   8   5    0.06    0.06
   0  -8  -5    0.09    0.08
   0   8   5    0.13    0.06
  -1  -8  -5   13.08    0.32
  -2  -8  -5    0.37    0.09
  -3  -8  -5    0.18    0.07
  -3  -8  -5    0.16    0.08
  -4  -8  -5    2.98    0.17
  -4  -8  -5    3.04    0.16
  -5  -8  -5    0.15    0.07
  -5  -8  -5   -0.02    0.06
  -6  -8  -5    2.12    0.17
   6   8   5    2.05    0.16
  -7  -8  -5    4.42    0.21
   7   8   5    4.25    0.22
  -8  -8  -5    0.83    0.13
   8   8   5    0.52    0.12
   8   8   5    0.51    0.10
  -9  -8  -5    0.05    0.10
   9   8   5    0.01    0.07
   9   8   5    0.23    0.12
 -10  -8  -5    0.24    0.12
  10   8   5    0.17    0.08
  10   8   5    0.02    0.11
 -11  -8  -5   -0.08    0.15
  11   8   5    0.08    0.12
   4  -9  -5    0.66    0.16
  -4   9   5    0.74    0.14
   3  -9  -5   -0.03    0.11
  -3   9   5    0.08    0.09
   2  -9  -5   -0.07    0.10
  -2   9   5   -0.05    0.07
   1  -9  -5    0.00    0.10
  -1   9   5   -0.04    0.07
   0  -9  -5    0.53    0.11
  -1  -9  -5    1.51    0.15
  -2  -9  -5    7.51    0.26
  -3  -9  -5    1.90    0.15
  -4  -9  -5    0.31    0.09
  -4  -9  -5    0.26    0.08
  -5  -9  -5    1.15    0.13
  -5  -9  -5    1.32    0.13
  -6  -9  -5    2.54    0.18
  -6  -9  -5    2.29    0.18
  -7  -9  -5    1.25    0.14
  -7  -9  -5    1.32    0.14
   7   9   5    1.11    0.15
  -8  -9  -5    0.11    0.10
   8   9   5    0.11    0.10
  -9  -9  -5    1.87    0.18
   9   9   5    1.91    0.19
   9   9   5    2.12    0.18
 -10  -9  -5    0.62    0.14
  10   9   5    0.39    0.10
  10   9   5    0.39    0.13
   3 -10  -5    0.15    0.13
  -3  10   5    0.31    0.11
   2 -10  -5    0.34    0.14
  -2  10   5    0.40    0.11
   1 -10  -5    0.05    0.11
   0 -10  -5    1.28    0.16
  -1 -10  -5    1.15    0.15
  -2 -10  -5    4.11    0.22
  -3 -10  -5    2.38    0.18
  -4 -10  -5    0.14    0.09
  -5 -10  -5    0.47    0.11
  -5 -10  -5    0.45    0.11
  -6 -10  -5    0.66    0.12
  -6 -10  -5    0.52    0.11
  -7 -10  -5    0.27    0.10
  -7 -10  -5    0.37    0.11
  -8 -10  -5   -0.09    0.09
  -8 -10  -5   -0.04    0.08
  -9 -10  -5    0.75    0.15
   9  10   5    0.90    0.16
 -10 -10  -5   -0.04    0.12
   1 -11  -5    0.47    0.15
   0 -11  -5    0.45    0.13
  -1 -11  -5   -0.02    0.10
  -2 -11  -5    0.19    0.11
  -3 -11  -5    3.60    0.22
  -4 -11  -5    1.24    0.15
  -5 -11  -5    1.41    0.16
  -6 -11  -5    2.46    0.19
  -6 -11  -5    2.02    0.18
  -7 -11  -5   -0.02    0.10
  -7 -11  -5    0.03    0.09
  -8 -11  -5    0.43    0.13
  -9 -11  -5    0.83    0.16
  -1 -12  -5   -0.02    0.12
  -2 -12  -5    0.02    0.11
  -3 -12  -5    0.29    0.12
  -4 -12  -5    1.34    0.17
  -5 -12  -5    1.52    0.17
  -6 -12  -5    0.31    0.13
  -7 -12  -5    0.09    0.10
   7   8  -6    0.37    0.11
  -7  -8   6    0.35    0.15
   6   8  -6    0.63    0.12
  -6  -8   6    1.08    0.18
   5   8  -6    0.98    0.14
   5   8  -6    1.00    0.14
  -5  -8   6    1.39    0.19
   4   8  -6    0.67    0.13
  -4  -8   6    0.96    0.17
   3   8  -6    0.85    0.14
  -3  -8   6    1.00    0.17
   2   8  -6    0.85    0.14
  -2  -8   6    0.98    0.17
   1   8  -6    0.19    0.11
  -1  -8   6    0.17    0.14
   0   8  -6    0.29    0.12
   0  -8   6    0.33    0.14
   8   7  -6   -0.19    0.08
  -8  -7   6   -0.08    0.10
   7   7  -6    0.25    0.10
  -7  -7   6    0.27    0.12
   6   7  -6    0.09    0.09
   6   7  -6    0.13    0.09
  -6  -7   6    0.15    0.12
   5   7  -6    0.57    0.11
   5   7  -6    0.77    0.12
  -5  -7   6    0.74    0.15
   4   7  -6   -0.02    0.07
   4   7  -6    0.08    0.09
  -4  -7   6    0.05    0.12
   3   7  -6    4.26    0.22
  -3  -7   6    4.67    0.27
   2   7  -6    0.05    0.09
  -2  -7   6   -0.08    0.11
   1   7  -6    0.28    0.10
  -1  -7   6    0.14    0.12
   0   7  -6   -0.03    0.09
   0  -7   6    0.07    0.12
  -1   7  -6    0.76    0.14
   1  -7   6    0.44    0.15
  -2   7  -6    0.26    0.12
   2  -7   6    0.47    0.15
   9   6  -6   -0.08    0.09
  -9  -6   6   -0.03    0.10
   8   6  -6    0.00    0.09
  -8  -6   6    0.22    0.11
   7   6  -6    0.03    0.09
  -7  -6   6    0.13    0.10
  -7  -6   6    0.16    0.10
   6   6  -6    0.31    0.10
   6   6  -6    0.34    0.10
  -6  -6   6    0.51    0.12
   5   6  -6    3.18    0.20
   5   6  -6    3.49    0.19
  -5  -6   6    3.19    0.23
   4   6  -6    1.00    0.13
   4   6  -6    1.01    0.12
  -4  -6   6    1.44    0.17
   3   6  -6   -0.02    0.07
   3   6  -6   -0.07    0.06
  -3  -6   6    0.07    0.10
   2   6  -6    1.25    0.14
  -2  -6   6    1.33    0.17
   1   6  -6    1.97    0.17
  -1  -6   6    1.87    0.19
   0   6  -6    1.65    0.16
   0  -6   6    1.20    0.16
  -1   6  -6    6.69    0.27
   1  -6   6    6.27    0.30
  -2   6  -6    2.52    0.20
   2  -6   6    3.18    0.24
  -3   6  -6    0.04    0.10
   3  -6   6    0.02    0.12
  -4   6  -6    0.16    0.12
   4  -6   6    0.22    0.13
  10   5  -6    0.23    0.13
 -10  -5   6    0.14    0.13
   9   5  -6    0.18    0.10
  -9  -5   6    0.02    0.09
   8   5  -6   -0.18    0.08
  -8  -5   6    0.10    0.09
  -8  -5   6   -0.01    0.10
   7   5  -6    0.39    0.10
  -7  -5   6    0.38    0.12
  -7  -5   6    0.22    0.10
   6   5  -6   -0.02    0.07
  -6  -5   6   -0.02    0.08
  -6  -5   6    0.05    0.10
   5   5  -6   11.41    0.30
  -5  -5   6   11.88    0.34
  -5  -5   6   12.08    0.35
   4   5  -6    5.63    0.21
   4   5  -6    5.69    0.22
  -4  -5   6    5.67    0.25
   3   5  -6    0.25    0.08
   3   5  -6    0.30    0.09
  -3  -5   6    0.39    0.11
   2   5  -6   14.28    0.29
   2   5  -6   14.14    0.34
  -2  -5   6   13.88    0.38
   1   5  -6   -0.02    0.07
  -1  -5   6    0.03    0.09
   0   5  -6    1.41    0.14
   0  -5   6    1.45    0.16
  -1   5  -6    0.37    0.10
   1  -5   6    0.42    0.12
  -2   5  -6    2.78    0.19
   2  -5   6    2.33    0.20
  -3   5  -6    0.29    0.11
   3  -5   6    0.29    0.12
  -4   5  -6    2.49    0.21
   4  -5   6    2.13    0.21
   4  -5   6    2.17    0.23
  -5   5  -6    0.28    0.12
   5  -5   6    0.48    0.12
   5  -5   6    0.59    0.14
  10   4  -6    0.06    0.10
   9   4  -6    0.86    0.13
  -9  -4   6    0.96    0.14
  -9  -4   6    1.04    0.16
   8   4  -6    0.20    0.09
  -8  -4   6    0.01    0.11
  -8  -4   6    0.04    0.08
   7   4  -6    0.17    0.09
  -7  -4   6    0.19    0.11
  -7  -4   6    0.18    0.09
   6   4  -6    1.12    0.12
  -6  -4   6    1.19    0.14
  -6  -4   6    0.93    0.14
   5   4  -6    3.61    0.18
  -5  -4   6    3.68    0.20
  -5  -4   6    3.42    0.20
   4   4  -6    0.06    0.07
  -4  -4   6    0.18    0.09
  -4  -4   6    0.02    0.08
   3   4  -6   -0.02    0.06
   3   4  -6    0.04    0.06
  -3  -4   6    0.09    0.08
   2   4  -6   25.31    0.45
   2   4  -6   24.98    0.39
  -2  -4   6   26.11    0.49
   1   4  -6    4.54    0.20
   1   4  -6    5.07    0.19
  -1  -4   6    4.94    0.23
   0   4  -6    1.79    0.15
   0  -4   6    1.73    0.16
  -1   4  -6   29.25    0.50
   1  -4   6   29.85    0.55
  -2   4  -6   29.01    0.51
   2  -4   6   28.44    0.55
   2  -4   6   28.58    0.66
  -3   4  -6    6.03    0.25
   3  -4   6    5.98    0.27
   3  -4   6    6.56    0.23
  -4   4  -6    0.32    0.10
   4  -4   6    0.35    0.12
   4  -4   6    0.23    0.09
  -5   4  -6    0.65    0.13
   5  -4   6    0.49    0.13
   5  -4   6    0.56    0.11
  -6   4  -6    4.38    0.25
   6  -4   6    3.91    0.26
   6  -4   6    4.37    0.25
  10   3  -6    0.05    0.09
 -10  -3   6    0.02    0.11
   9   3  -6    0.19    0.09
  -9  -3   6    0.42    0.13
   8   3  -6    0.14    0.09
   8   3  -6    0.14    0.08
  -8  -3   6    0.09    0.11
  -8  -3   6    0.32    0.09
   7   3  -6    2.17    0.17
   7   3  -6    1.99    0.15
  -7  -3   6    2.22    0.18
  -7  -3   6    2.12    0.17
   6   3  -6    3.33    0.18
   6   3  -6    3.39    0.18
  -6  -3   6    3.05    0.18
  -6  -3   6    3.28    0.20
   5   3  -6    1.41    0.12
   5   3  -6    1.18    0.11
  -5  -3   6    1.23    0.13
  -5  -3   6    1.27    0.13
   4   3  -6   14.38    0.30
   4   3  -6   14.76    0.31
  -4  -3   6   14.54    0.34
  -4  -3   6   15.02    0.35
   3   3  -6   14.76    0.29
   3   3  -6   15.39    0.30
  -3  -3   6   14.92    0.34
  -3  -3   6   15.38    0.35
   2   3  -6    0.47    0.07
   2   3  -6    0.51    0.07
   2   3  -6    0.34    0.08
  -2  -3   6    0.51    0.10
  -2  -3   6    0.40    0.09
   1   3  -6   22.11    0.40
   1   3  -6   21.84    0.33
  -1  -3   6   21.81    0.43
   0   3  -6   11.37    0.28
   0  -3   6   11.45    0.31
  -1   3  -6    4.04    0.18
   1  -3   6    3.90    0.15
   1  -3   6    4.20    0.21
  -2   3  -6   13.89    0.33
   2  -3   6   13.85    0.36
   2  -3   6   14.08    0.29
  -3   3  -6   11.07    0.30
   3  -3   6   10.95    0.28
   3  -3   6   11.32    0.33
  -4   3  -6    0.13    0.08
   4  -3   6    0.11    0.10
   4  -3   6    0.13    0.07
  -5   3  -6    0.88    0.13
   5  -3   6    0.82    0.12
   5  -3   6    0.74    0.13
  -6   3  -6    1.03    0.15
   6  -3   6    0.83    0.15
   6  -3   6    1.45    0.16
  -7   3  -6    0.30    0.11
  -7   3  -6    0.18    0.10
   7  -3   6    0.06    0.09
  10   2  -6    0.00    0.09
 -10  -2   6    0.02    0.11
   9   2  -6    0.16    0.09
   9   2  -6    0.20    0.09
  -9  -2   6    0.14    0.11
   8   2  -6   17.22    0.40
   8   2  -6   16.79    0.39
  -8  -2   6   17.04    0.42
   7   2  -6    6.24    0.24
   7   2  -6    5.81    0.23
  -7  -2   6    5.69    0.26
  -7  -2   6    5.70    0.22
   6   2  -6    0.06    0.07
   6   2  -6    0.06    0.07
  -6  -2   6    0.11    0.07
  -6  -2   6    0.04    0.09
   5   2  -6    0.49    0.08
   5   2  -6    0.51    0.08
  -5  -2   6    0.61    0.09
  -5  -2   6    0.55    0.10
   4   2  -6    0.74    0.08
   4   2  -6    0.99    0.10
  -4  -2   6    0.80    0.11
  -4  -2   6    0.86    0.10
   3   2  -6    0.86    0.08
   3   2  -6    0.60    0.08
  -3  -2   6    0.71    0.09
  -3  -2   6    0.69    0.10
   2   2  -6    8.29    0.20
   2   2  -6    8.19    0.20
  -2  -2   6    8.06    0.23
  -2  -2   6    7.70    0.24
   1   2  -6   16.43    0.32
   1   2  -6   16.17    0.27
   1   2  -6   16.36    0.27
  -1  -2   6   16.82    0.34
  -1  -2   6   16.72    0.35
   0   2  -6    1.24    0.11
   0   2  -6    1.26    0.08
   0   2  -6    1.13    0.08
   0  -2   6    1.39    0.12
   0  -2   6    1.22    0.08
  -1   2  -6    3.04    0.15
   1  -2   6    2.77    0.12
   1  -2   6    2.89    0.17
  -2   2  -6    2.11    0.14
   2  -2   6    2.13    0.12
   2  -2   6    2.04    0.16
  -3   2  -6    1.93    0.14
   3  -2   6    2.03    0.14
   3  -2   6    2.21    0.17
  -4   2  -6    7.91    0.25
   4  -2   6    8.11    0.26
   4  -2   6    8.06    0.29
  -5   2  -6    6.17    0.23
   5  -2   6    6.10    0.24
   5  -2   6    6.38    0.27
  -6   2  -6    0.56    0.11
   6  -2   6    0.50    0.11
   6  -2   6    0.53    0.12
  -7   2  -6    3.84    0.22
  -7   2  -6    4.01    0.23
   7  -2   6    4.01    0.25
  -8   2  -6    0.30    0.11
  -8   2  -6    0.21    0.10
   8  -2   6    0.46    0.13
  10   1  -6    1.19    0.14
  10   1  -6    0.88    0.13
 -10  -1   6    1.27    0.17
   9   1  -6    3.54    0.21
   9   1  -6    3.30    0.20
  -9  -1   6    3.21    0.23
   8   1  -6    1.07    0.13
   8   1  -6    1.20    0.13
  -8  -1   6    1.14    0.15
   7   1  -6   -0.01    0.07
   7   1  -6    0.04    0.07
  -7  -1   6    0.20    0.11
   6   1  -6    0.06    0.07
   6   1  -6    0.01    0.06
  -6  -1   6    0.14    0.09
  -6  -1   6    0.13    0.06
   5   1  -6    3.51    0.17
   5   1  -6    3.32    0.16
  -5  -1   6    3.65    0.19
  -5  -1   6    3.48    0.15
   4   1  -6    1.07    0.09
   4   1  -6    0.98    0.09
  -4  -1   6    1.27    0.10
  -4  -1   6    1.27    0.12
   3   1  -6   37.66    0.50
   3   1  -6   37.51    0.50
  -3  -1   6   36.97    0.51
  -3  -1   6   36.77    0.55
   2   1  -6    2.98    0.13
   2   1  -6    2.96    0.13
  -2  -1   6    2.89    0.15
  -2  -1   6    2.79    0.14
   1   1  -6    2.44    0.11
   1   1  -6    2.53    0.11
  -1  -1   6    2.35    0.14
  -1  -1   6    2.50    0.08
  -1  -1   6    2.59    0.14
   0   1  -6    4.93    0.17
   0   1  -6    4.75    0.13
   0   1  -6    4.73    0.13
   0  -1   6    4.77    0.18
   0  -1   6    4.61    0.13
  -1   1  -6    8.90    0.16
  -1   1  -6    9.02    0.22
  -1   1  -6    8.99    0.16
   1  -1   6    9.04    0.19
   1  -1   6    8.59    0.24
  -2   1  -6   23.36    0.39
   2  -1   6   24.12    0.38
  -3   1  -6    4.90    0.19
   3  -1   6    5.18    0.21
   3  -1   6    5.91    0.19
  -4   1  -6   34.06    0.52
   4  -1   6   34.03    0.54
   4  -1   6   34.23    0.57
  -5   1  -6    0.24    0.08
   5  -1   6    0.03    0.09
   5  -1   6    0.28    0.08
  -6   1  -6    1.17    0.13
   6  -1   6    1.42    0.16
   6  -1   6    1.14    0.14
  -7   1  -6    0.80    0.12
  -7   1  -6    0.91    0.12
   7  -1   6    0.96    0.14
  -8   1  -6    0.06    0.09
  -8   1  -6    0.25    0.10
   8  -1   6    0.15    0.10
  10   0  -6    0.33    0.10
  10   0  -6    0.32    0.10
 -10   0   6    0.67    0.16
   9   0  -6    0.16    0.09
   9   0  -6    0.21    0.09
  -9   0   6    0.18    0.11
   8   0  -6    0.13    0.08
   8   0  -6    0.27    0.08
  -8   0   6    0.02    0.10
   7   0  -6    1.71    0.13
   7   0  -6    2.24    0.16
  -7   0   6    1.98    0.17
   6   0  -6    0.47    0.08
   6   0  -6    0.44    0.08
  -6   0   6    0.37    0.10
   5   0  -6    6.71    0.21
   5   0  -6    6.45    0.21
  -5   0   6    6.77    0.18
  -5   0   6    6.62    0.23
   4   0  -6    2.88    0.15
   4   0  -6    3.28    0.15
  -4   0   6    2.94    0.13
  -4   0   6    2.93    0.16
   3   0  -6    6.06    0.18
   3   0  -6    6.03    0.12
   3   0  -6    5.79    0.18
  -3   0   6    6.09    0.20
  -3   0   6    5.94    0.17
   2   0  -6    1.32    0.10
   2   0  -6    1.29    0.06
   2   0  -6    1.36    0.10
  -2   0   6    1.36    0.11
  -2   0   6    1.32    0.10
   1   0  -6    0.10    0.04
   1   0  -6    0.19    0.05
  -1   0   6    0.22    0.04
  -1   0   6    0.18    0.07
  -1   0   6    0.16    0.06
   0   0  -6   42.55    0.49
   0   0  -6   42.25    0.49
   0   0   6   41.98    0.48
   0   0   6   42.57    0.56
   0   0   6   42.58    0.55
  -1   0  -6   15.43    0.28
  -1   0  -6   15.66    0.23
  -1   0  -6   15.69    0.23
   1   0   6   15.03    0.26
   1   0   6   14.87    0.30
  -2   0  -6    1.84    0.11
  -2   0  -6    1.80    0.07
  -2   0  -6    1.71    0.07
   2   0   6    1.70    0.13
   2   0   6    1.60    0.10
  -3   0  -6   12.18    0.25
   3   0   6   11.39    0.29
   3   0   6   12.36    0.27
  -4   0  -6    0.84    0.09
   4   0   6    0.82    0.10
   4   0   6    0.77    0.10
  -5   0  -6    1.89    0.13
   5   0   6    1.73    0.14
   5   0   6    1.50    0.15
  -6   0  -6    0.32    0.09
  -6   0  -6    0.30    0.08
   6   0   6    0.30    0.09
  -7   0  -6    3.91    0.19
  -7   0  -6    4.01    0.21
   7   0   6    3.67    0.22
  -8   0  -6    0.44    0.11
   8   0   6    0.58    0.13
  -9   0  -6    4.95    0.26
   9   0   6    5.28    0.29
  10  -1  -6   -0.02    0.08
  10  -1  -6    0.17    0.09
 -10   1   6    0.21    0.13
   9  -1  -6    0.40    0.10
   9  -1  -6    0.54    0.11
  -9   1   6    0.51    0.13
   8  -1  -6   -0.05    0.07
   8  -1  -6    0.01    0.07
  -8   1   6   -0.04    0.09
   7  -1  -6    7.21    0.24
   7  -1  -6    6.88    0.24
  -7   1   6    7.32    0.27
   6  -1  -6    6.10    0.22
   6  -1  -6    6.20    0.22
  -6   1   6    5.94    0.24
   5  -1  -6    0.08    0.06
   5  -1  -6    0.08    0.05
   5  -1  -6    0.13    0.06
  -5   1   6    0.03    0.07
   4  -1  -6    7.16    0.21
   4  -1  -6    6.71    0.21
   4  -1  -6    7.08    0.17
  -4   1   6    6.92    0.16
  -4   1   6    7.10    0.22
   3  -1  -6   13.64    0.28
   3  -1  -6   13.69    0.22
   3  -1  -6   13.61    0.27
  -3   1   6   13.57    0.23
  -3   1   6   13.35    0.29
   2  -1  -6    0.09    0.05
   2  -1  -6    0.08    0.04
   2  -1  -6    0.14    0.05
  -2   1   6   -0.03    0.05
  -2   1   6    0.11    0.04
   1  -1  -6    0.01    0.03
   1  -1  -6    0.01    0.04
   1  -1  -6   -0.04    0.04
  -1   1   6    0.01    0.05
  -1   1   6   -0.02    0.04
   0  -1  -6   12.26    0.22
   0   1   6   12.06    0.25
   0   1   6   11.79    0.21
   0   1   6   12.10    0.24
  -1  -1  -6   25.77    0.33
   1   1   6   25.56    0.36
   1   1   6   25.67    0.39
   1   1   6   25.13    0.37
  -2  -1  -6    2.71    0.09
  -2  -1  -6    2.83    0.12
   2   1   6    2.45    0.13
   2   1   6    2.85    0.13
  -3  -1  -6   17.18    0.23
  -3  -1  -6   17.07    0.28
   3   1   6   16.75    0.31
   3   1   6   16.24    0.33
  -4  -1  -6   10.74    0.23
   4   1   6   10.71    0.27
   4   1   6   11.20    0.28
  -5  -1  -6   84.82    0.92
  -5  -1  -6   84.51    1.00
   5   1   6   85.27    1.01
  -6  -1  -6    1.18    0.11
  -6  -1  -6    0.91    0.11
   6   1   6    0.90    0.12
  -7  -1  -6   -0.08    0.07
  -7  -1  -6    0.00    0.10
   7   1   6   -0.03    0.08
  -8  -1  -6    4.30    0.23
   8   1   6    4.70    0.25
  -9  -1  -6    0.19    0.10
   9   1   6    0.32    0.12
 -10  -1  -6    1.43    0.17
   9  -2  -6    0.88    0.12
   9  -2  -6    0.99    0.12
  -9   2   6    0.89    0.15
   8  -2  -6    0.11    0.08
   8  -2  -6    0.26    0.09
  -8   2   6    0.13    0.10
   7  -2  -6    1.86    0.14
   7  -2  -6    2.14    0.15
  -7   2   6    1.83    0.17
   6  -2  -6   12.85    0.31
   6  -2  -6   13.06    0.31
   6  -2  -6   12.54    0.29
  -6   2   6   13.63    0.35
   5  -2  -6   13.32    0.30
   5  -2  -6   12.97    0.30
   5  -2  -6   13.61    0.28
  -5   2   6   12.90    0.32
   4  -2  -6    0.11    0.06
   4  -2  -6    0.12    0.06
   4  -2  -6   -0.02    0.05
  -4   2   6    0.08    0.07
   3  -2  -6    7.37    0.18
   3  -2  -6    7.28    0.20
   3  -2  -6    7.08    0.20
  -3   2   6    7.03    0.21
  -3   2   6    7.13    0.16
   2  -2  -6   26.58    0.40
   2  -2  -6   26.74    0.36
  -2   2   6   26.17    0.41
  -2   2   6   26.35    0.33
   1  -2  -6   16.85    0.29
   1  -2  -6   17.41    0.27
  -1   2   6   16.82    0.25
  -1   2   6   17.44    0.31
   0  -2  -6   58.33    0.65
   0   2   6   56.47    0.63
   0   2   6   56.99    0.64
   0   2   6   57.81    0.66
  -1  -2  -6   22.03    0.32
   1   2   6   21.87    0.33
   1   2   6   21.81    0.33
   1   2   6   22.01    0.33
  -2  -2  -6   10.60    0.20
   2   2   6   10.02    0.21
   2   2   6   10.46    0.23
   2   2   6   10.20    0.23
  -3  -2  -6   58.15    0.63
   3   2   6   58.40    0.70
   3   2   6   57.05    0.71
  -4  -2  -6    0.40    0.06
  -4  -2  -6    0.35    0.07
   4   2   6    0.27    0.08
  -5  -2  -6    3.21    0.17
  -5  -2  -6    3.23    0.13
   5   2   6    2.88    0.17
  -6  -2  -6   18.51    0.39
  -6  -2  -6   19.14    0.38
   6   2   6   19.54    0.41
  -7  -2  -6    1.96    0.16
   7   2   6    2.19    0.18
  -8  -2  -6    9.90    0.31
   8   2   6    9.31    0.33
  -9  -2  -6    0.62    0.13
   9   2   6    1.35    0.17
 -10  -2  -6    0.47    0.12
  10   2   6    0.25    0.13
  -9   3   6    0.56    0.14
   8  -3  -6   -0.07    0.07
   8  -3  -6    0.03    0.10
   8  -3  -6    0.05    0.07
  -8   3   6    0.03    0.10
   7  -3  -6    4.98    0.21
   7  -3  -6    5.30    0.22
   7  -3  -6    5.10    0.23
  -7   3   6    5.40    0.26
   6  -3  -6    0.12    0.07
   6  -3  -6    0.18    0.07
   6  -3  -6    0.17    0.08
  -6   3   6    0.14    0.09
   5  -3  -6    6.76    0.21
   5  -3  -6    7.24    0.23
   5  -3  -6    7.04    0.23
  -5   3   6    6.94    0.24
   4  -3  -6    0.02    0.06
   4  -3  -6    0.05    0.06
   4  -3  -6   -0.02    0.06
  -4   3   6    0.04    0.06
   3  -3  -6    0.01    0.05
   3  -3  -6   -0.02    0.05
  -3   3   6    0.00    0.06
   2  -3  -6   28.64    0.43
   2  -3  -6   27.52    0.40
  -2   3   6   28.54    0.43
   1  -3  -6    0.02    0.05
   1  -3  -6    0.03    0.04
  -1   3   6    0.00    0.03
  -1   3   6   -0.04    0.05
   0  -3  -6    9.22    2.55
   0  -3  -6   11.25    0.22
   0   3   6   11.09    0.22
   0   3   6   11.20    0.19
   1   3   6   10.64    0.21
   1   3   6   10.97    0.23
   1   3   6   11.01    0.21
  -2  -3  -6    0.13    0.05
   2   3   6    0.00    0.04
   2   3   6    0.12    0.04
  -3  -3  -6    3.25    0.10
  -3  -3  -6    2.97    0.13
   3   3   6    2.77    0.14
  -4  -3  -6    1.06    0.10
  -4  -3  -6    1.09    0.07
   4   3   6    1.22    0.11
  -5  -3  -6    9.77    0.26
   5   3   6    9.67    0.27
  -6  -3  -6   55.55    0.75
   6   3   6   57.58    0.79
  -7  -3  -6    0.17    0.08
   7   3   6    0.28    0.10
  -8  -3  -6    4.36    0.22
   8   3   6    4.74    0.25
  -9  -3  -6   -0.09    0.08
   9   3   6    0.29    0.12
 -10  -3  -6    1.56    0.17
  10   3   6    1.54    0.19
   8  -4  -6    1.25    0.16
  -8   4   6    1.34    0.17
   7  -4  -6    1.70    0.14
   7  -4  -6    1.70    0.14
   7  -4  -6    2.08    0.18
  -7   4   6    1.58    0.16
   6  -4  -6    1.01    0.11
   6  -4  -6    1.24    0.14
   6  -4  -6    1.01    0.11
  -6   4   6    1.31    0.15
   5  -4  -6    1.51    0.12
   5  -4  -6    2.04    0.15
   5  -4  -6    1.45    0.12
  -5   4   6    1.64    0.15
   4  -4  -6   22.46    0.41
   4  -4  -6   22.29    0.40
  -4   4   6   22.40    0.43
   3  -4  -6    0.56    0.08
   3  -4  -6    0.58    0.09
  -3   4   6    0.79    0.10
   2  -4  -6    1.03    0.10
   2  -4  -6    0.66    0.08
  -2   4   6    0.80    0.09
   1  -4  -6    1.41    0.11
   1  -4  -6    1.18    0.09
  -1   4   6    1.29    0.10
   0  -4  -6    6.05    0.17
   0  -4  -6    5.76    0.12
   0   4   6    5.94    0.16
  -1  -4  -6    4.99    0.13
  -1  -4  -6    5.15    0.16
   1   4   6    5.11    0.14
  -2  -4  -6    5.38    0.15
   2   4   6    5.33    0.13
   2   4   6    5.31    0.17
  -3  -4  -6    3.66    0.14
  -3  -4  -6    3.58    0.09
   3   4   6    3.45    0.15
  -4  -4  -6    5.83    0.18
   4   4   6    6.05    0.21
  -5  -4  -6    0.36    0.08
   5   4   6    0.39    0.09
  -6  -4  -6   44.87    0.64
   6   4   6   45.15    0.67
  -7  -4  -6    1.04    0.12
   7   4   6    1.26    0.14
  -8  -4  -6    0.02    0.08
   8   4   6    0.01    0.09
  -9  -4  -6    2.10    0.18
   9   4   6    1.96    0.19
 -10  -4  -6    1.57    0.17
  10   4   6    1.46    0.19
   8  -5  -6    0.11    0.11
  -8   5   6    0.03    0.11
   7  -5  -6    4.33    0.25
  -7   5   6    4.71    0.26
   6  -5  -6    0.24    0.08
   6  -5  -6    0.19    0.08
   6  -5  -6    0.15    0.10
  -6   5   6    0.30    0.11
   5  -5  -6    0.58    0.09
   5  -5  -6    0.73    0.10
   5  -5  -6    0.81    0.12
  -5   5   6    0.77    0.12
   4  -5  -6    6.11    0.23
   4  -5  -6    6.35    0.22
  -4   5   6    5.76    0.23
   3  -5  -6    5.36    0.20
   3  -5  -6    4.98    0.20
  -3   5   6    5.13    0.20
   2  -5  -6    0.07    0.07
   2  -5  -6   -0.03    0.05
  -2   5   6    0.00    0.06
   1  -5  -6   19.95    0.36
  -1   5   6   20.22    0.34
   0  -5  -6    5.48    0.18
   0   5   6    5.64    0.16
  -1  -5  -6   26.29    0.41
  -1  -5  -6   27.33    0.34
   1   5   6   26.35    0.36
  -2  -5  -6    0.08    0.06
  -2  -5  -6    0.21    0.05
   2   5   6    0.14    0.04
   2   5   6    0.17    0.07
  -3  -5  -6    1.23    0.10
  -4  -5  -6    0.08    0.06
   4   5   6    0.01    0.06
  -5  -5  -6    2.21    0.14
   5   5   6    2.39    0.16
  -6  -5  -6    0.98    0.12
   6   5   6    0.66    0.11
  -7  -5  -6    1.12    0.13
   7   5   6    1.12    0.13
  -8  -5  -6    0.41    0.10
   8   5   6    0.57    0.12
  -9  -5  -6    7.19    0.29
   9   5   6    7.02    0.30
 -10  -5  -6    1.14    0.16
  10   5   6    1.33    0.17
 -11  -5  -6    1.68    0.19
  11   5   6    1.66    0.21
   7  -6  -6   -0.07    0.10
  -7   6   6    0.00    0.10
   6  -6  -6    4.40    0.25
   6  -6  -6    4.54    0.31
   6  -6  -6    4.23    0.31
  -6   6   6    4.56    0.25
   5  -6  -6   -0.21    0.09
   5  -6  -6    0.02    0.07
   5  -6  -6    0.12    0.07
  -5   6   6   -0.07    0.07
   4  -6  -6    0.31    0.10
   4  -6  -6    0.18    0.07
  -4   6   6    0.49    0.10
   3  -6  -6    6.42    0.23
   3  -6  -6    6.83    0.25
  -3   6   6    7.07    0.24
   2  -6  -6   43.96    0.63
   2  -6  -6   42.77    0.61
  -2   6   6   43.75    0.61
   1  -6  -6    0.07    0.08
  -1   6   6    0.20    0.07
   0  -6  -6    0.11    0.07
   0   6   6    0.07    0.05
  -1  -6  -6    0.93    0.10
  -1  -6  -6    1.01    0.08
   1   6   6    1.11    0.09
  -2  -6  -6    0.90    0.10
  -2  -6  -6    0.93    0.08
   2   6   6    1.06    0.09
  -3  -6  -6    0.87    0.10
  -3  -6  -6    0.84    0.08
   3   6   6    1.04    0.11
  -4  -6  -6    7.14    0.20
   4   6   6    6.89    0.23
  -5  -6  -6    1.28    0.11
   5   6   6    0.96    0.11
  -6  -6  -6    3.86    0.19
   6   6   6    4.33    0.21
  -7  -6  -6    7.05    0.25
   7   6   6    7.16    0.27
  -8  -6  -6    3.96    0.21
   8   6   6    4.51    0.24
  -9  -6  -6    0.23    0.10
   9   6   6    0.16    0.11
 -10  -6  -6    0.05    0.10
  10   6   6   -0.05    0.11
 -11  -6  -6   -0.05    0.10
  11   6   6    0.09    0.12
   6  -7  -6    0.50    0.14
  -6   7   6    0.54    0.13
   5  -7  -6    0.89    0.15
   5  -7  -6    1.00    0.12
  -5   7   6    0.92    0.14
   4  -7  -6    0.63    0.14
   4  -7  -6    0.64    0.10
  -4   7   6    0.66    0.12
   3  -7  -6    3.03    0.20
   3  -7  -6    3.12    0.17
  -3   7   6    2.78    0.18
   2  -7  -6    8.54    0.28
  -2   7   6    8.83    0.26
   1  -7  -6    8.84    0.27
  -1   7   6    9.21    0.24
   0  -7  -6    0.95    0.11
   0   7   6    0.93    0.09
  -1  -7  -6    2.21    0.15
   1   7   6    2.18    0.11
  -2  -7  -6    2.53    0.16
  -2  -7  -6    2.76    0.12
  -3  -7  -6   14.31    0.32
  -3  -7  -6   14.16    0.27
  -4  -7  -6    1.32    0.12
  -4  -7  -6    1.38    0.11
   4   7   6    1.07    0.12
  -5  -7  -6    4.96    0.19
   5   7   6    5.03    0.21
  -6  -7  -6    4.86    0.20
   6   7   6    4.49    0.22
  -7  -7  -6    1.30    0.14
   7   7   6    0.92    0.13
  -8  -7  -6    5.86    0.26
   8   7   6    6.37    0.27
  -9  -7  -6   -0.06    0.10
   9   7   6   -0.05    0.10
 -10  -7  -6    0.05    0.10
  10   7   6    0.08    0.11
 -11  -7  -6    0.16    0.19
  11   7   6    0.19    0.13
   5  -8  -6   -0.08    0.11
  -5   8   6   -0.12    0.08
   4  -8  -6    0.08    0.07
   4  -8  -6   -0.03    0.11
  -4   8   6    0.06    0.09
   3  -8  -6    1.95    0.19
   3  -8  -6    2.41    0.17
  -3   8   6    2.07    0.17
   2  -8  -6    0.07    0.10
  -2   8   6    0.11    0.08
   1  -8  -6    0.02    0.08
  -1   8   6    0.19    0.07
   0  -8  -6    2.62    0.18
   0   8   6    2.78    0.14
  -1  -8  -6    1.16    0.13
  -2  -8  -6    0.82    0.11
  -3  -8  -6    2.95    0.18
  -3  -8  -6    3.23    0.15
  -4  -8  -6    7.68    0.22
  -4  -8  -6    7.98    0.26
  -5  -8  -6    0.16    0.08
  -5  -8  -6    0.15    0.08
  -6  -8  -6    0.84    0.11
   6   8   6    1.07    0.14
  -7  -8  -6    0.54    0.11
   7   8   6    0.84    0.13
  -8  -8  -6    1.15    0.15
   8   8   6    1.36    0.16
  -9  -8  -6    1.45    0.17
   9   8   6    1.20    0.17
 -10  -8  -6    1.24    0.17
  10   8   6    1.37    0.18
   4  -9  -6    0.16    0.13
  -4   9   6    0.37    0.12
   3  -9  -6    1.10    0.12
   3  -9  -6    1.22    0.18
  -3   9   6    1.24    0.15
   2  -9  -6    0.18    0.11
  -2   9   6    0.14    0.08
   1  -9  -6    1.16    0.16
  -1   9   6    0.99    0.12
   0  -9  -6    1.79    0.16
  -1  -9  -6    1.15    0.14
  -2  -9  -6    1.16    0.13
  -3  -9  -6    0.21    0.09
  -4  -9  -6   -0.04    0.08
  -4  -9  -6    0.00    0.07
  -5  -9  -6    0.50    0.10
  -5  -9  -6    0.52    0.11
  -6  -9  -6   -0.05    0.08
  -6  -9  -6    0.16    0.09
  -7  -9  -6    3.49    0.21
   7   9   6    2.82    0.21
  -8  -9  -6    1.21    0.15
   8   9   6    0.97    0.15
  -9  -9  -6    3.45    0.23
   9   9   6    2.92    0.22
 -10  -9  -6    0.09    0.11
  10   9   6    0.16    0.13
   3 -10  -6   -0.04    0.12
  -3  10   6   -0.11    0.09
   2 -10  -6    1.07    0.17
  -2  10   6    0.96    0.15
   1 -10  -6    0.00    0.11
   0 -10  -6    0.05    0.11
  -1 -10  -6    0.12    0.10
  -2 -10  -6    0.06    0.10
  -3 -10  -6    0.12    0.10
  -4 -10  -6    0.10    0.09
  -5 -10  -6   -0.01    0.09
  -5 -10  -6    0.02    0.09
  -6 -10  -6    0.40    0.11
  -6 -10  -6    0.61    0.12
  -7 -10  -6    0.36    0.11
  -7 -10  -6    0.17    0.10
  -8 -10  -6   -0.03    0.08
  -8 -10  -6   -0.01    0.10
  -9 -10  -6    0.02    0.11
   9  10   6   -0.07    0.11
   1 -11  -6    0.97    0.17
   0 -11  -6    0.21    0.13
  -1 -11  -6    0.09    0.11
  -2 -11  -6   -0.08    0.09
  -3 -11  -6    0.10    0.10
  -4 -11  -6    0.30    0.11
  -5 -11  -6    1.96    0.18
  -6 -11  -6   -0.02    0.09
  -7 -11  -6   -0.04    0.10
  -7 -11  -6   -0.06    0.09
  -8 -11  -6    0.11    0.10
  -8 -11  -6   -0.20    0.10
  -1 -12  -6   -0.01    0.11
  -2 -12  -6    0.05    0.11
  -3 -12  -6    0.67    0.14
  -4 -12  -6    3.73    0.24
  -5 -12  -6    0.66    0.14
  -6 -12  -6    0.39    0.12
  -7 -12  -6   -0.07    0.10
   4   8  -7    0.25    0.11
  -4  -8   7    0.27    0.23
   3   8  -7    0.09    0.10
  -3  -8   7    0.02    0.22
   7   7  -7    0.04    0.09
   7   7  -7    0.00    0.10
  -7  -7   7   -0.08    0.11
   6   7  -7    0.06    0.09
   6   7  -7    0.15    0.10
  -6  -7   7    0.14    0.12
   5   7  -7    0.07    0.10
   5   7  -7   -0.02    0.08
  -5  -7   7    0.00    0.12
   4   7  -7    0.22    0.10
  -4  -7   7    0.28    0.13
   3   7  -7    4.41    0.24
  -3  -7   7    3.99    0.28
   2   7  -7    0.18    0.11
  -2  -7   7    0.29    0.14
   1   7  -7    0.05    0.10
  -1  -7   7    0.11    0.13
   0   7  -7    1.29    0.17
   0  -7   7    1.47    0.20
  -1   7  -7    5.93    0.31
   1  -7   7    5.76    0.33
   8   6  -7    2.90    0.22
  -8  -6   7    3.03    0.24
  -8  -6   7    3.69    0.32
   7   6  -7    0.35    0.11
  -7  -6   7    0.34    0.13
  -7  -6   7    0.41    0.13
   6   6  -7    0.18    0.09
   6   6  -7    0.27    0.10
  -6  -6   7    0.69    0.14
   5   6  -7   -0.11    0.08
   5   6  -7    0.05    0.08
  -5  -6   7   -0.19    0.09
   4   6  -7    0.51    0.10
   4   6  -7    0.47    0.11
  -4  -6   7    0.63    0.14
   3   6  -7    0.05    0.09
  -3  -6   7   -0.12    0.10
   2   6  -7    0.09    0.09
  -2  -6   7    0.17    0.12
   1   6  -7    0.28    0.10
  -1  -6   7    0.44    0.13
   0   6  -7    0.10    0.09
   0  -6   7    0.03    0.11
  -1   6  -7    5.00    0.26
   1  -6   7    4.45    0.28
  -2   6  -7    0.67    0.14
   2  -6   7    0.54    0.15
  -3   6  -7    5.65    0.33
   3  -6   7    6.21    0.32
  -9  -5   7    0.51    0.12
   8   5  -7    0.86    0.13
  -8  -5   7    0.71    0.13
  -8  -5   7    1.10    0.16
   7   5  -7    2.90    0.20
  -7  -5   7    2.27    0.20
  -7  -5   7    2.61    0.21
   6   5  -7    0.06    0.08
  -6  -5   7    0.20    0.11
  -6  -5   7    0.40    0.11
   5   5  -7   -0.04    0.08
  -5  -5   7    0.17    0.10
  -5  -5   7    0.00    0.10
   4   5  -7    1.28    0.14
   4   5  -7    1.05    0.12
  -4  -5   7    1.05    0.14
   3   5  -7    0.04    0.07
   3   5  -7    0.07    0.08
  -3  -5   7    0.09    0.10
   2   5  -7    0.20    0.09
  -2  -5   7    0.11    0.11
   1   5  -7    0.50    0.11
  -1  -5   7    0.70    0.14
   0   5  -7    0.11    0.09
   0  -5   7    0.09    0.11
  -1   5  -7    0.11    0.09
   1  -5   7    0.23    0.12
  -2   5  -7    0.53    0.12
   2  -5   7    0.68    0.15
  -3   5  -7    0.31    0.11
   3  -5   7    0.18    0.12
  -4   5  -7    3.11    0.24
   4  -5   7    2.79    0.24
   9   4  -7    0.13    0.10
  -9  -4   7    0.27    0.13
   8   4  -7    0.43    0.11
  -8  -4   7    0.76    0.15
  -8  -4   7    0.43    0.11
   7   4  -7    1.46    0.15
  -7  -4   7    1.31    0.16
  -7  -4   7    1.58    0.16
   6   4  -7    1.48    0.14
  -6  -4   7    1.62    0.18
  -6  -4   7    1.51    0.16
   5   4  -7    0.13    0.08
  -5  -4   7    0.26    0.10
  -5  -4   7    0.09    0.10
   4   4  -7    6.54    0.23
  -4  -4   7    6.76    0.27
  -4  -4   7    7.18    0.27
   3   4  -7   11.74    0.31
   3   4  -7   11.14    0.28
  -3  -4   7   11.49    0.34
   2   4  -7    2.26    0.16
   2   4  -7    1.97    0.13
  -2  -4   7    2.25    0.19
   1   4  -7    0.05    0.08
  -1  -4   7    0.13    0.10
   0   4  -7    0.00    0.07
   0  -4   7    0.10    0.09
  -1   4  -7    0.28    0.10
   1  -4   7    0.29    0.11
  -2   4  -7    5.64    0.24
   2  -4   7    5.00    0.27
  -3   4  -7    4.78    0.24
   3  -4   7    4.79    0.27
  -4   4  -7    0.94    0.14
   4  -4   7    0.98    0.17
  -5   4  -7   -0.03    0.10
   5  -4   7    0.06    0.09
   5  -4   7    0.01    0.11
  10   3  -7    0.26    0.12
 -10  -3   7    0.04    0.12
   9   3  -7    0.14    0.10
  -9  -3   7    0.07    0.12
   8   3  -7    0.31    0.10
   8   3  -7    0.00    0.09
  -8  -3   7    0.39    0.12
   7   3  -7    2.15    0.17
   7   3  -7    2.06    0.16
  -7  -3   7    2.12    0.17
  -7  -3   7    1.73    0.18
   6   3  -7    0.37    0.09
   6   3  -7    0.45    0.09
  -6  -3   7    0.61    0.13
  -6  -3   7    0.40    0.10
   5   3  -7    5.17    0.21
   5   3  -7    5.16    0.21
  -5  -3   7    5.22    0.23
  -5  -3   7    5.31    0.25
   4   3  -7    7.92    0.24
   4   3  -7    7.59    0.23
  -4  -3   7    7.80    0.27
  -4  -3   7    7.58    0.27
   3   3  -7   16.09    0.32
   3   3  -7   15.76    0.32
  -3  -3   7   16.20    0.38
  -3  -3   7   15.97    0.38
   2   3  -7    7.17    0.20
   2   3  -7    8.03    0.25
   2   3  -7    7.59    0.21
  -2  -3   7    7.73    0.27
   1   3  -7    3.55    0.18
   1   3  -7    3.29    0.14
  -1  -3   7    3.40    0.20
   0   3  -7    5.46    0.22
   0  -3   7    5.19    0.24
  -1   3  -7    1.54    0.14
   1  -3   7    1.68    0.16
  -2   3  -7    0.20    0.09
   2  -3   7    0.61    0.13
  -3   3  -7    2.60    0.18
   3  -3   7    2.23    0.19
   3  -3   7    2.11    0.15
  -4   3  -7   -0.01    0.09
   4  -3   7    0.12    0.08
   4  -3   7    0.06    0.10
  -5   3  -7    4.13    0.23
   5  -3   7    4.63    0.27
   5  -3   7    4.42    0.23
  -6   3  -7    0.16    0.10
   6  -3   7    0.13    0.10
   6  -3   7    0.09    0.11
  10   2  -7    0.00    0.09
  10   2  -7    0.24    0.11
 -10  -2   7    0.25    0.13
   9   2  -7    0.68    0.12
   9   2  -7    0.62    0.12
  -9  -2   7    0.63    0.15
   8   2  -7    0.84    0.12
   8   2  -7    0.87    0.12
  -8  -2   7    0.71    0.14
   7   2  -7    0.78    0.11
   7   2  -7    0.66    0.11
  -7  -2   7    0.96    0.15
   6   2  -7    0.44    0.09
   6   2  -7    0.54    0.10
  -6  -2   7    0.17    0.10
  -6  -2   7    0.40    0.09
   5   2  -7    7.83    0.24
   5   2  -7    8.09    0.24
  -5  -2   7    7.51    0.27
  -5  -2   7    8.45    0.26
   4   2  -7    1.19    0.11
   4   2  -7    1.09    0.11
  -4  -2   7    0.96    0.13
  -4  -2   7    1.39    0.13
   3   2  -7    0.10    0.06
   3   2  -7    0.09    0.06
  -3  -2   7    0.15    0.08
  -3  -2   7    0.14    0.08
   2   2  -7   22.40    0.36
   2   2  -7   22.42    0.36
  -2  -2   7   22.47    0.43
  -2  -2   7   22.51    0.43
   1   2  -7   13.52    0.26
   1   2  -7   13.55    0.25
   1   2  -7   13.14    0.30
  -1  -2   7   13.25    0.33
   0   2  -7   16.19    0.34
   0   2  -7   16.20    0.27
   0   2  -7   16.33    0.27
   0  -2   7   16.16    0.37
  -1   2  -7    8.72    0.25
   1  -2   7    8.22    0.27
   1  -2   7    8.60    0.28
  -2   2  -7   10.12    0.28
   2  -2   7    9.98    0.31
   2  -2   7    9.66    0.24
  -3   2  -7    1.42    0.13
   3  -2   7    1.11    0.14
   3  -2   7    1.10    0.12
  -4   2  -7    0.29    0.09
   4  -2   7    0.37    0.09
   4  -2   7    0.21    0.10
  -5   2  -7   -0.03    0.08
   5  -2   7    0.08    0.10
   5  -2   7    0.00    0.07
  -6   2  -7    0.10    0.09
   6  -2   7    0.09    0.09
   6  -2   7   -0.03    0.10
  -7   2  -7    0.94    0.15
  -7   2  -7    1.13    0.15
   7  -2   7    1.19    0.16
  10   1  -7    0.02    0.09
  10   1  -7   -0.10    0.08
 -10  -1   7    0.06    0.13
   9   1  -7    1.25    0.14
   9   1  -7    0.90    0.13
  -9  -1   7    1.34    0.18
   8   1  -7    1.71    0.16
   8   1  -7    1.55    0.15
  -8  -1   7    2.26    0.20
   7   1  -7    3.14    0.20
   7   1  -7    3.10    0.19
  -7  -1   7    3.24    0.23
   6   1  -7   10.47    0.29
   6   1  -7   10.03    0.28
  -6  -1   7    9.66    0.31
   5   1  -7    0.62    0.09
   5   1  -7    0.55    0.09
  -5  -1   7    0.62    0.12
  -5  -1   7    0.69    0.09
   4   1  -7    0.23    0.07
   4   1  -7    0.21    0.07
  -4  -1   7    0.28    0.09
  -4  -1   7    0.29    0.07
   3   1  -7    0.01    0.05
   3   1  -7    0.11    0.06
  -3  -1   7    0.05    0.07
  -3  -1   7    0.11    0.07
   2   1  -7    0.02    0.05
   2   1  -7   -0.05    0.05
  -2  -1   7   -0.07    0.07
  -2  -1   7   -0.04    0.06
   1   1  -7    0.79    0.07
   1   1  -7    0.72    0.07
  -1  -1   7    0.83    0.10
  -1  -1   7    0.74    0.11
   0   1  -7    4.40    0.14
   0   1  -7    4.42    0.17
   0   1  -7    4.27    0.13
   0  -1   7    4.58    0.19
   0  -1   7    4.46    0.13
  -1   1  -7    3.12    0.15
   1  -1   7    3.12    0.13
   1  -1   7    3.24    0.17
  -2   1  -7    2.08    0.14
   2  -1   7    2.28    0.12
   2  -1   7    1.62    0.14
  -3   1  -7    1.51    0.13
   3  -1   7    1.04    0.13
   3  -1   7    1.20    0.11
  -4   1  -7   20.34    0.39
   4  -1   7   20.87    0.45
   4  -1   7   20.51    0.41
  -5   1  -7    0.50    0.10
   5  -1   7    0.41    0.11
   5  -1   7    0.47    0.10
  -6   1  -7   -0.01    0.08
   6  -1   7    0.05    0.08
   6  -1   7    0.02    0.10
  -7   1  -7    3.60    0.21
  -7   1  -7    3.61    0.23
   7  -1   7    3.98    0.24
  -8   1  -7    3.82    0.25
   8  -1   7    4.19    0.26
  10   0  -7    0.78    0.13
  10   0  -7    0.62    0.12
 -10   0   7    0.88    0.17
   9   0  -7    0.54    0.11
   9   0  -7    0.45    0.11
  -9   0   7    0.63    0.14
   8   0  -7    8.20    0.28
   8   0  -7    8.47    0.29
  -8   0   7    8.71    0.32
   7   0  -7    5.75    0.23
   7   0  -7    5.72    0.23
  -7   0   7    6.11    0.27
   6   0  -7    2.41    0.16
   6   0  -7    2.40    0.17
  -6   0   7    2.54    0.19
   5   0  -7    0.02    0.06
   5   0  -7   -0.01    0.06
  -5   0   7    0.20    0.09
   4   0  -7    0.50    0.08
   4   0  -7    0.38    0.07
  -4   0   7    0.51    0.08
  -4   0   7    0.49    0.10
   3   0  -7    1.37    0.11
   3   0  -7    1.31    0.11
  -3   0   7    1.40    0.13
  -3   0   7    1.61    0.11
   2   0  -7    9.33    0.22
   2   0  -7    8.91    0.22
  -2   0   7    8.92    0.25
  -2   0   7    8.90    0.23
   1   0  -7    0.55    0.07
   1   0  -7    0.57    0.07
  -1   0   7    0.42    0.08
  -1   0   7    0.70    0.06
  -1   0   7    0.65    0.10
   0   0  -7    9.66    0.20
   0   0  -7    9.19    0.20
   0   0   7    9.16    0.19
   0   0   7    9.04    0.24
   0   0   7    9.18    0.24
  -1   0  -7    1.87    0.09
  -1   0  -7    2.04    0.10
  -1   0  -7    1.90    0.12
   1   0   7    2.04    0.14
   1   0   7    1.98    0.11
  -2   0  -7   11.04    0.25
   2   0   7   10.59    0.28
   2   0   7   11.39    0.25
  -3   0  -7    6.18    0.20
   3   0   7    6.08    0.23
   3   0   7    6.16    0.20
  -4   0  -7    0.29    0.08
   4   0   7    0.37    0.09
   4   0   7    0.30    0.10
  -5   0  -7    2.02    0.15
   5   0   7    2.43    0.16
   5   0   7    1.89    0.17
  -6   0  -7    3.15    0.18
  -6   0  -7    2.69    0.19
   6   0   7    3.11    0.20
  -7   0  -7    0.97    0.14
  -7   0  -7    1.04    0.13
   7   0   7    1.13    0.15
  -8   0  -7    2.08    0.19
   8   0   7    2.70    0.22
  -9   0  -7    1.29    0.17
   9   0   7    1.23    0.22
   9  -1  -7    5.52    0.25
   9  -1  -7    5.16    0.25
  -9   1   7    4.88    0.28
   8  -1  -7    3.08    0.19
   8  -1  -7    2.21    0.17
  -8   1   7    1.95    0.19
   7  -1  -7    1.20    0.12
   7  -1  -7    1.05    0.12
  -7   1   7    0.84    0.14
   6  -1  -7    0.20    0.08
   6  -1  -7    0.21    0.08
  -6   1   7    0.24    0.10
   5  -1  -7    2.51    0.16
   5  -1  -7    2.54    0.16
  -5   1   7    2.33    0.18
   4  -1  -7    0.13    0.07
   4  -1  -7    0.15    0.07
  -4   1   7    0.22    0.09
   3  -1  -7   21.14    0.30
   3  -1  -7   21.00    0.37
   3  -1  -7   21.78    0.37
  -3   1   7   21.29    0.33
  -3   1   7   20.96    0.40
   2  -1  -7    8.62    0.22
   2  -1  -7    8.35    0.17
   2  -1  -7    8.92    0.22
  -2   1   7    8.26    0.24
  -2   1   7    8.43    0.20
   1  -1  -7    0.93    0.07
   1  -1  -7    0.81    0.08
   1  -1  -7    0.81    0.08
  -1   1   7    0.94    0.09
  -1   1   7    0.83    0.09
   0  -1  -7   -0.03    0.04
   0  -1  -7    0.03    0.04
   0   1   7   -0.09    0.05
   0   1   7    0.04    0.04
   0   1   7    0.01    0.05
  -1  -1  -7    3.27    0.12
   1   1   7    3.09    0.14
   1   1   7    2.86    0.14
   1   1   7    3.02    0.13
  -2  -1  -7    3.73    0.14
  -2  -1  -7    3.68    0.12
   2   1   7    3.69    0.14
   2   1   7    3.74    0.17
  -3  -1  -7    0.34    0.07
   3   1   7    0.36    0.09
   3   1   7    0.50    0.08
  -4  -1  -7   -0.04    0.05
   4   1   7    0.15    0.08
   4   1   7   -0.06    0.06
  -5  -1  -7   22.29    0.38
   5   1   7   22.03    0.43
   5   1   7   22.29    0.46
  -6  -1  -7   -0.08    0.06
  -6  -1  -7   -0.01    0.07
   6   1   7    0.00    0.07
  -7  -1  -7    0.93    0.13
   7   1   7    1.05    0.14
  -8  -1  -7    0.17    0.10
   8   1   7    0.48    0.12
  -9  -1  -7    0.81    0.15
   9   1   7    0.67    0.15
   9  -2  -7   -0.08    0.08
   9  -2  -7   -0.04    0.08
  -9   2   7   -0.01    0.11
   8  -2  -7    0.73    0.12
   8  -2  -7    0.69    0.12
  -8   2   7    0.68    0.13
   7  -2  -7    2.64    0.18
   7  -2  -7    2.57    0.18
  -7   2   7    2.32    0.20
   6  -2  -7   -0.04    0.07
   6  -2  -7    0.01    0.07
  -6   2   7   -0.07    0.08
   5  -2  -7    5.66    0.21
   5  -2  -7    5.67    0.21
   5  -2  -7    5.66    0.21
  -5   2   7    5.73    0.23
   4  -2  -7   12.08    0.25
   4  -2  -7   12.55    0.29
   4  -2  -7   11.78    0.29
  -4   2   7   12.52    0.31
   3  -2  -7    0.20    0.06
   3  -2  -7    0.16    0.07
   3  -2  -7    0.26    0.07
  -3   2   7    0.07    0.07
   2  -2  -7    2.49    0.14
   2  -2  -7    2.33    0.11
   2  -2  -7    2.21    0.13
  -2   2   7    2.42    0.14
  -2   2   7    2.47    0.10
   1  -2  -7    4.80    0.16
   1  -2  -7    4.64    0.14
  -1   2   7    4.63    0.17
  -1   2   7    4.87    0.14
   0  -2  -7    2.24    0.12
   0   2   7    2.24    0.11
   0   2   7    2.43    0.13
   0   2   7    2.29    0.11
  -1  -2  -7    7.55    0.18
   1   2   7    7.55    0.20
   1   2   7    7.50    0.19
   1   2   7    7.43    0.20
  -2  -2  -7    4.14    0.14
  -2  -2  -7    4.03    0.13
   2   2   7    4.23    0.16
   2   2   7    4.12    0.17
  -3  -2  -7    1.68    0.09
  -3  -2  -7    1.28    0.10
   3   2   7    1.17    0.11
   3   2   7    1.42    0.12
  -4  -2  -7    0.24    0.06
  -4  -2  -7    0.38    0.08
   4   2   7    0.39    0.09
   4   2   7    0.45    0.09
  -5  -2  -7    8.92    0.21
  -5  -2  -7    8.16    0.26
   5   2   7    8.07    0.26
  -6  -2  -7    2.87    0.18
   6   2   7    2.77    0.18
  -7  -2  -7   -0.05    0.08
   7   2   7   -0.11    0.08
  -8  -2  -7    3.85    0.23
   8   2   7    3.65    0.24
  -9  -2  -7    0.07    0.10
   9   2   7    0.09    0.11
   9  -3  -7    0.22    0.10
   9  -3  -7    0.16    0.09
  -9   3   7    0.11    0.12
   8  -3  -7    0.05    0.08
   8  -3  -7    0.16    0.09
  -8   3   7    0.13    0.11
   7  -3  -7    0.14    0.08
   7  -3  -7    0.05    0.08
  -7   3   7    0.10    0.10
   6  -3  -7    3.23    0.19
   6  -3  -7    2.82    0.18
   6  -3  -7    3.16    0.18
  -6   3   7    3.02    0.20
   5  -3  -7    2.57    0.15
   5  -3  -7    2.41    0.17
   5  -3  -7    2.52    0.17
  -5   3   7    2.75    0.18
   4  -3  -7    0.57    0.09
   4  -3  -7    0.58    0.09
   4  -3  -7    0.46    0.08
  -4   3   7    0.57    0.10
   3  -3  -7    4.79    0.17
   3  -3  -7    4.94    0.19
   3  -3  -7    5.03    0.19
  -3   3   7    4.75    0.19
   2  -3  -7    2.27    0.12
  -2   3   7    2.29    0.14
   1  -3  -7   15.16    0.30
   1  -3  -7   15.02    0.27
  -1   3   7   14.53    0.23
  -1   3   7   14.96    0.30
   0  -3  -7    8.48    0.20
   0  -3  -7    8.56    0.21
   0   3   7    8.42    0.18
   0   3   7    8.61    0.21
  -1  -3  -7    4.87    2.39
   1   3   7    6.05    0.17
   1   3   7    6.13    0.17
   1   3   7    6.30    0.18
   2   3   7   29.57    0.41
   2   3   7   29.80    0.43
   2   3   7   29.19    0.45
  -3  -3  -7    4.47    0.16
  -3  -3  -7    4.24    0.13
   3   3   7    3.93    0.17
  -4  -3  -7    2.34    0.14
  -4  -3  -7    2.20    0.10
   4   3   7    2.18    0.15
  -5  -3  -7    2.94    0.17
   5   3   7    2.77    0.17
  -6  -3  -7    1.83    0.15
   6   3   7    2.14    0.17
  -7  -3  -7    2.61    0.19
   7   3   7    2.91    0.20
  -8  -3  -7    0.35    0.10
   8   3   7    0.26    0.11
  -9  -3  -7    0.62    0.13
   9   3   7    0.43    0.13
 -10  -3  -7    0.87    0.15
  10   3   7    0.93    0.17
   8  -4  -7    0.29    0.10
   8  -4  -7    0.29    0.10
  -8   4   7    0.44    0.13
   7  -4  -7    0.40    0.10
   7  -4  -7    0.34    0.09
   7  -4  -7    0.47    0.12
  -7   4   7    0.65    0.14
   6  -4  -7    0.04    0.07
   6  -4  -7   -0.03    0.08
   6  -4  -7    0.07    0.07
  -6   4   7   -0.08    0.08
   5  -4  -7    3.50    0.19
   5  -4  -7    3.38    0.18
   5  -4  -7    3.37    0.19
  -5   4   7    3.58    0.20
   4  -4  -7    0.14    0.08
   4  -4  -7    0.19    0.07
   4  -4  -7    0.18    0.07
  -4   4   7    0.13    0.08
   3  -4  -7    0.10    0.07
   3  -4  -7   -0.02    0.06
  -3   4   7    0.09    0.07
   2  -4  -7    0.12    0.06
   2  -4  -7    0.12    0.07
  -2   4   7    0.31    0.08
   1  -4  -7    1.81    0.12
   1  -4  -7    1.92    0.13
  -1   4   7    1.91    0.13
   0  -4  -7    7.75    0.15
   0  -4  -7    7.66    0.20
   0   4   7    7.59    0.20
  -1  -4  -7    3.70    0.15
  -1  -4  -7    3.42    0.12
   1   4   7    3.37    0.13
  -2  -4  -7    4.09    0.14
   2   4   7    3.93    0.13
   2   4   7    4.13    0.16
  -3  -4  -7    9.23    0.23
  -3  -4  -7    9.57    0.18
  -4  -4  -7    4.78    0.18
   4   4   7    4.82    0.20
  -5  -4  -7    0.36    0.08
   5   4   7    0.53    0.10
  -6  -4  -7    0.28    0.09
   6   4   7    0.28    0.09
  -7  -4  -7   11.48    0.32
   7   4   7   10.89    0.34
  -8  -4  -7    0.49    0.11
   8   4   7    0.43    0.12
  -9  -4  -7    1.64    0.17
   9   4   7    1.48    0.18
 -10  -4  -7    0.94    0.15
  10   4   7    1.09    0.17
   8  -5  -7    0.03    0.11
   7  -5  -7    0.94    0.13
   7  -5  -7    1.02    0.15
   7  -5  -7    1.14    0.13
  -7   5   7    0.94    0.16
   6  -5  -7    0.01    0.08
   6  -5  -7    0.25    0.09
   6  -5  -7    0.11    0.10
  -6   5   7    0.29    0.11
   5  -5  -7    1.91    0.15
   5  -5  -7    1.89    0.17
   5  -5  -7    2.02    0.15
  -5   5   7    1.89    0.17
   4  -5  -7    0.07    0.07
   4  -5  -7    0.23    0.09
  -4   5   7    0.11    0.08
   3  -5  -7    8.75    0.26
   3  -5  -7    9.16    0.26
  -3   5   7    8.99    0.27
   2  -5  -7    0.04    0.07
   2  -5  -7    0.01    0.06
  -2   5   7    0.00    0.06
   1  -5  -7    0.45    0.08
   1  -5  -7    0.40    0.07
  -1   5   7    0.31    0.07
   0  -5  -7    0.80    0.09
   0   5   7    0.83    0.09
  -1  -5  -7   13.13    0.29
  -1  -5  -7   13.18    0.22
   1   5   7   12.84    0.25
  -2  -5  -7    2.79    0.12
   2   5   7    2.97    0.16
   2   5   7    2.86    0.11
  -3  -5  -7   11.16    0.24
   3   5   7   11.64    0.28
  -4  -5  -7    5.11    0.18
   4   5   7    4.99    0.20
  -5  -5  -7    5.84    0.21
   5   5   7    5.87    0.23
  -6  -5  -7   11.64    0.30
   6   5   7   11.75    0.33
  -7  -5  -7    0.57    0.11
   7   5   7    0.79    0.13
  -8  -5  -7    0.80    0.13
   8   5   7    0.57    0.13
  -9  -5  -7    0.11    0.10
   9   5   7    0.15    0.11
 -10  -5  -7    0.07    0.11
  10   5   7   -0.04    0.11
   7  -6  -7    0.25    0.12
  -7   6   7    0.22    0.11
   6  -6  -7   -0.10    0.08
   6  -6  -7   -0.05    0.07
   6  -6  -7    0.12    0.11
  -6   6   7    0.02    0.09
   5  -6  -7    0.02    0.07
   5  -6  -7    0.06    0.10
   5  -6  -7   -0.02    0.07
  -5   6   7   -0.06    0.07
   4  -6  -7    0.24    0.09
   4  -6  -7    0.63    0.12
  -4   6   7    0.63    0.11
   3  -6  -7    1.03    0.13
   3  -6  -7    1.07    0.12
  -3   6   7    1.12    0.13
   2  -6  -7   58.79    0.78
   2  -6  -7   59.20    0.78
  -2   6   7   60.52    0.78
   1  -6  -7    4.42    0.19
  -1   6   7    4.63    0.18
   0  -6  -7    0.82    0.10
   0   6   7    0.99    0.10
  -1  -6  -7   -0.07    0.07
   1   6   7   -0.01    0.05
  -2  -6  -7    0.42    0.08
  -2  -6  -7    0.45    0.07
  -3  -6  -7    0.67    0.08
   3   6   7    0.58    0.10
  -4  -6  -7    0.01    0.06
   4   6   7   -0.03    0.07
  -5  -6  -7    1.49    0.13
   5   6   7    1.54    0.14
  -6  -6  -7    0.28    0.09
   6   6   7    0.30    0.10
  -7  -6  -7    7.34    0.26
   7   6   7    6.85    0.27
  -8  -6  -7   -0.02    0.09
   8   6   7    0.06    0.10
  -9  -6  -7    0.17    0.11
   9   6   7    0.16    0.11
 -10  -6  -7    0.09    0.11
  10   6   7    0.28    0.13
   6  -7  -7    0.27    0.13
  -6   7   7    0.19    0.11
   5  -7  -7    0.62    0.11
   5  -7  -7    0.46    0.13
  -5   7   7    0.65    0.13
   4  -7  -7    5.91    0.28
   4  -7  -7    6.21    0.25
  -4   7   7    6.42    0.27
   3  -7  -7    8.70    0.28
   3  -7  -7    8.92    0.30
  -3   7   7    8.31    0.27
   2  -7  -7    0.12    0.09
   2  -7  -7   -0.09    0.06
  -2   7   7    0.14    0.07
   1  -7  -7    2.54    0.18
  -1   7   7    2.75    0.15
   0  -7  -7    1.67    0.14
   0   7   7    1.68    0.12
  -1  -7  -7   -0.02    0.07
  -2  -7  -7    4.36    0.20
  -3  -7  -7    2.88    0.17
  -3  -7  -7    3.05    0.14
  -4  -7  -7    0.13    0.07
   4   7   7    0.13    0.08
  -5  -7  -7    2.96    0.16
   5   7   7    3.15    0.19
  -6  -7  -7    0.92    0.12
   6   7   7    0.97    0.13
  -7  -7  -7   -0.04    0.08
   7   7   7    0.05    0.09
  -8  -7  -7    1.09    0.14
   8   7   7    1.27    0.16
  -9  -7  -7    0.55    0.13
   9   7   7    0.64    0.14
 -10  -7  -7    0.01    0.11
  10   7   7   -0.11    0.11
   5  -8  -7    0.15    0.13
  -5   8   7    0.40    0.12
   4  -8  -7    1.68    0.15
   4  -8  -7    2.04    0.20
  -4   8   7    2.04    0.18
   3  -8  -7    1.87    0.15
   3  -8  -7    2.24    0.20
  -3   8   7    2.10    0.17
   2  -8  -7    0.17    0.11
   2  -8  -7    0.21    0.08
  -2   8   7    0.13    0.08
   1  -8  -7    0.46    0.11
  -1   8   7    0.60    0.10
   0  -8  -7    3.25    0.20
  -1  -8  -7    9.91    0.29
  -2  -8  -7   12.45    0.32
  -3  -8  -7    0.59    0.11
  -4  -8  -7   -0.03    0.08
  -4  -8  -7    0.04    0.06
  -5  -8  -7    0.13    0.08
  -5  -8  -7    0.07    0.07
   5   8   7    0.18    0.09
  -6  -8  -7    1.46    0.14
   6   8   7    1.77    0.16
  -7  -8  -7    1.16    0.14
   7   8   7    0.96    0.14
  -8  -8  -7   -0.01    0.10
   8   8   7    0.06    0.11
  -9  -8  -7   -0.14    0.09
   9   8   7    0.02    0.12
 -10  -8  -7    0.17    0.12
  10   8   7    0.07    0.12
   4  -9  -7    0.08    0.13
  -4   9   7    0.28    0.10
   3  -9  -7    1.78    0.20
   3  -9  -7    1.53    0.15
  -3   9   7    1.94    0.18
   2  -9  -7   -5.96    4.64
   1  -9  -7    1.66    0.18
   0  -9  -7    0.02    0.09
  -1  -9  -7    0.91    0.13
  -2  -9  -7    2.51    0.19
  -3  -9  -7    2.09    0.18
  -4  -9  -7    0.10    0.09
  -5  -9  -7    3.81    0.22
  -5  -9  -7    3.51    0.18
  -6  -9  -7    3.18    0.20
  -6  -9  -7    3.01    0.19
  -7  -9  -7    0.71    0.12
   7   9   7    0.84    0.15
  -8  -9  -7    0.09    0.10
   8   9   7    0.06    0.10
  -9  -9  -7   -0.04    0.10
   9   9   7    0.02    0.11
 -10  -9  -7   -0.06    0.11
  10   9   7    0.08    0.13
   3 -10  -7   -0.22    0.13
  -3  10   7   -0.04    0.09
   2 -10  -7   -8.52    3.75
   2 -10  -7    0.29    0.14
   1 -10  -7    2.78    0.22
   0 -10  -7   -0.05    0.10
  -1 -10  -7    0.60    0.13
  -2 -10  -7    1.09    0.15
  -3 -10  -7    7.10    0.29
  -4 -10  -7    1.17    0.15
  -5 -10  -7    1.13    0.15
  -6 -10  -7    5.21    0.24
  -6 -10  -7    5.03    0.25
  -7 -10  -7    0.80    0.13
  -7 -10  -7    1.27    0.15
  -8 -10  -7   -0.03    0.10
  -8 -10  -7    0.00    0.10
   8  10   7    0.22    0.12
  -9 -10  -7    0.25    0.13
   9  10   7    0.26    0.12
   1 -11  -7    0.17    0.13
   0 -11  -7    0.84    0.16
  -1 -11  -7    0.49    0.14
  -2 -11  -7    3.49    0.24
  -3 -11  -7    0.07    0.10
  -4 -11  -7    3.65    0.24
  -5 -11  -7    0.02    0.10
  -6 -11  -7    0.69    0.14
  -7 -11  -7    0.37    0.12
  -7 -11  -7    0.43    0.12
  -8 -11  -7    0.21    0.12
  -8 -11  -7    0.09    0.11
  -1 -12  -7    0.78    0.19
  -2 -12  -7   -0.09    0.11
  -3 -12  -7    1.54    0.18
  -4 -12  -7    0.37    0.13
  -5 -12  -7    0.00    0.11
  -6 -12  -7    0.21    0.12
   5   7  -8    0.52    0.13
  -5  -7   8    0.53    0.19
   4   7  -8    0.02    0.10
  -4  -7   8    0.12    0.13
   3   7  -8    0.11    0.11
  -3  -7   8    0.44    0.15
   2   7  -8    0.61    0.14
  -2  -7   8    0.76    0.18
   1   7  -8    0.89    0.17
   7   6  -8    0.38    0.11
   7   6  -8    0.17    0.10
  -7  -6   8    0.36    0.13
   6   6  -8    0.19    0.10
   6   6  -8    0.23    0.10
  -6  -6   8    0.28    0.13
   5   6  -8   -0.02    0.09
   5   6  -8   -0.05    0.08
  -5  -6   8    0.10    0.11
   4   6  -8    0.08    0.09
  -4  -6   8    0.16    0.12
   3   6  -8    2.08    0.19
  -3  -6   8    2.13    0.22
   2   6  -8    0.18    0.10
  -2  -6   8    0.29    0.13
   1   6  -8    0.09    0.09
  -1  -6   8   -0.01    0.13
   0   6  -8    0.54    0.13
   0  -6   8    0.82    0.17
  -1   6  -8    2.04    0.20
   1  -6   8    1.92    0.22
   8   5  -8    0.01    0.10
  -8  -5   8    0.06    0.10
  -8  -5   8   -0.08    0.12
   7   5  -8    0.68    0.12
  -7  -5   8    0.74    0.15
  -7  -5   8    0.84    0.15
   6   5  -8    0.11    0.09
  -6  -5   8    0.16    0.12
  -6  -5   8    0.29    0.11
   5   5  -8    0.70    0.12
   5   5  -8    0.33    0.10
  -5  -5   8    0.72    0.14
   4   5  -8    3.48    0.20
   4   5  -8    3.18    0.21
  -4  -5   8    3.33    0.24
   3   5  -8    1.27    0.14
  -3  -5   8    1.73    0.19
   2   5  -8    2.17    0.18
  -2  -5   8    2.47    0.22
   1   5  -8    0.02    0.09
  -1  -5   8    0.18    0.12
   0   5  -8    0.07    0.09
   0  -5   8    0.27    0.13
  -1   5  -8    0.37    0.11
   1  -5   8    0.61    0.15
  -2   5  -8    0.39    0.12
   2  -5   8    0.55    0.15
  -3   5  -8    0.35    0.13
   3  -5   8    0.35    0.15
   8   4  -8   -0.07    0.09
  -8  -4   8   -0.11    0.11
  -8  -4   8    0.07    0.11
   7   4  -8    0.22    0.10
  -7  -4   8    0.40    0.11
  -7  -4   8    0.38    0.13
   6   4  -8    0.10    0.09
  -6  -4   8    0.02    0.11
  -6  -4   8    0.35    0.10
   5   4  -8    3.36    0.19
  -5  -4   8    2.97    0.22
  -5  -4   8    3.64    0.23
   4   4  -8    1.10    0.12
  -4  -4   8    1.33    0.15
  -4  -4   8    0.89    0.14
   3   4  -8    0.88    0.10
   3   4  -8    1.18    0.14
  -3  -4   8    1.14    0.15
   2   4  -8   -0.05    0.07
  -2  -4   8   -0.15    0.09
   1   4  -8    0.15    0.09
  -1  -4   8    0.37    0.12
   0   4  -8    5.76    0.25
   0  -4   8    5.96    0.28
  -1   4  -8    0.10    0.09
   1  -4   8    0.37    0.13
  -2   4  -8    6.08    0.26
   2  -4   8    5.74    0.29
  -3   4  -8    0.12    0.10
   3  -4   8    0.30    0.13
  -4   4  -8   -0.10    0.09
   4  -4   8    0.27    0.13
   9   3  -8    0.26    0.10
  -9  -3   8    0.27    0.13
   8   3  -8    0.21    0.10
   8   3  -8    0.05    0.09
  -8  -3   8    0.17    0.12
   7   3  -8    0.08    0.09
   7   3  -8   -0.09    0.08
  -7  -3   8    0.09    0.11
  -7  -3   8   -0.07    0.07
   6   3  -8    1.70    0.15
   6   3  -8    1.56    0.14
  -6  -3   8    1.65    0.18
  -6  -3   8    2.26    0.18
   5   3  -8    6.12    0.24
   5   3  -8    6.12    0.24
  -5  -3   8    5.93    0.25
  -5  -3   8    5.41    0.27
   4   3  -8   -0.05    0.07
   4   3  -8    0.11    0.08
  -4  -3   8    0.09    0.09
  -4  -3   8    0.11    0.10
   3   3  -8    5.91    0.21
   3   3  -8    5.81    0.21
  -3  -3   8    6.16    0.26
  -3  -3   8    6.05    0.26
   2   3  -8    0.17    0.07
   2   3  -8    0.21    0.07
   2   3  -8    0.31    0.09
  -2  -3   8    0.41    0.10
   1   3  -8    0.93    0.12
  -1  -3   8    1.46    0.15
   0   3  -8    1.89    0.16
   0  -3   8    1.89    0.17
  -1   3  -8   12.21    0.33
   1  -3   8   11.90    0.36
  -2   3  -8    3.52    0.20
   2  -3   8    3.00    0.22
  -3   3  -8    0.21    0.10
   3  -3   8    0.22    0.12
  -4   3  -8    1.25    0.16
   4  -3   8    1.00    0.17
  -5   3  -8    0.62    0.13
   5  -3   8    0.88    0.16
   5  -3   8    0.89    0.16
   9   2  -8    0.01    0.09
   9   2  -8    0.01    0.10
  -9  -2   8    0.09    0.13
   8   2  -8    0.06    0.09
   8   2  -8   -0.04    0.09
  -8  -2   8    0.05    0.12
   7   2  -8    1.31    0.14
   7   2  -8    1.20    0.14
  -7  -2   8    1.31    0.17
   6   2  -8    0.09    0.08
   6   2  -8    0.00    0.08
  -6  -2   8    0.05    0.07
  -6  -2   8   -0.20    0.09
   5   2  -8    0.36    0.09
   5   2  -8    0.42    0.09
  -5  -2   8    0.30    0.11
  -5  -2   8    0.40    0.10
   4   2  -8    0.67    0.09
   4   2  -8    0.48    0.09
  -4  -2   8    0.77    0.11
  -4  -2   8    0.51    0.12
   3   2  -8    7.25    0.23
   3   2  -8    7.45    0.23
  -3  -2   8    7.46    0.26
  -3  -2   8    7.63    0.28
   2   2  -8    7.69    0.22
   2   2  -8    8.20    0.22
  -2  -2   8    8.01    0.27
  -2  -2   8    8.08    0.28
   1   2  -8    4.26    0.20
   1   2  -8    4.60    0.16
   1   2  -8    4.44    0.16
  -1  -2   8    4.29    0.21
   0   2  -8   36.15    0.57
   0  -2   8   35.83    0.61
  -1   2  -8   15.93    0.36
   1  -2   8   15.92    0.40
  -2   2  -8    2.14    0.17
   2  -2   8    2.15    0.19
  -3   2  -8    1.94    0.17
   3  -2   8    2.02    0.19
   3  -2   8    2.13    0.18
  -4   2  -8    4.84    0.23
   4  -2   8    4.85    0.22
   4  -2   8    5.15    0.27
  -5   2  -8    6.05    0.26
   5  -2   8    6.69    0.31
   5  -2   8    6.11    0.26
  -6   2  -8    1.06    0.14
   6  -2   8    0.97    0.15
   6  -2   8    0.81    0.15
   9   1  -8   -0.02    0.09
   9   1  -8   -0.01    0.09
  -9  -1   8   -0.04    0.12
   8   1  -8    1.39    0.15
   8   1  -8    1.31    0.14
  -8  -1   8    1.42    0.18
   7   1  -8    3.48    0.21
   7   1  -8    3.39    0.21
  -7  -1   8    3.36    0.23
   6   1  -8    1.64    0.14
   6   1  -8    1.95    0.15
  -6  -1   8    2.11    0.19
   5   1  -8    0.78    0.10
   5   1  -8    0.78    0.11
  -5  -1   8    0.99    0.14
  -5  -1   8    0.94    0.11
   4   1  -8    6.81    0.23
   4   1  -8    6.44    0.22
  -4  -1   8    6.92    0.23
  -4  -1   8    6.81    0.26
   3   1  -8    6.51    0.21
   3   1  -8    6.24    0.21
  -3  -1   8    6.64    0.23
  -3  -1   8    6.41    0.25
   2   1  -8   12.33    0.27
   2   1  -8   13.25    0.28
  -2  -1   8   13.13    0.32
  -2  -1   8   13.60    0.34
   1   1  -8    2.16    0.12
   1   1  -8    2.10    0.12
  -1  -1   8    1.81    0.15
  -1  -1   8    2.21    0.16
   0   1  -8    1.17    0.08
   0   1  -8    1.07    0.08
   0   1  -8    1.03    0.12
   0  -1   8    1.22    0.13
  -1   1  -8    2.11    0.15
   1  -1   8    2.00    0.16
  -2   1  -8    0.95    0.12
   2  -1   8    1.28    0.14
   2  -1   8    1.10    0.10
  -3   1  -8   22.01    0.42
   3  -1   8   22.25    0.41
   3  -1   8   22.16    0.48
  -4   1  -8    3.98    0.20
   4  -1   8    3.76    0.23
   4  -1   8    3.97    0.20
  -5   1  -8   -0.01    0.08
   5  -1   8    0.11    0.11
   5  -1   8    0.08    0.08
  -6   1  -8    0.02    0.09
   6  -1   8    0.04    0.11
   6  -1   8    0.32    0.10
  -7   1  -8    0.89    0.15
  -7   1  -8    1.04    0.14
   7  -1   8    1.06    0.16
   9   0  -8    2.30    0.19
   9   0  -8    2.38    0.19
  -9   0   8    2.35    0.22
   8   0  -8    1.31    0.14
   8   0  -8    1.52    0.15
  -8   0   8    1.77    0.19
   7   0  -8    2.68    0.20
   7   0  -8    2.71    0.20
  -7   0   8    2.34    0.20
   6   0  -8    0.21    0.08
   6   0  -8    0.13    0.08
  -6   0   8    0.12    0.10
   5   0  -8    0.49    0.09
   5   0  -8    0.34    0.09
  -5   0   8    0.47    0.12
   4   0  -8    1.05    0.11
   4   0  -8    0.76    0.10
  -4   0   8    1.17    0.11
  -4   0   8    1.23    0.14
   3   0  -8    8.11    0.23
   3   0  -8    8.09    0.23
  -3   0   8    8.07    0.23
  -3   0   8    8.18    0.27
   2   0  -8   26.51    0.42
   2   0  -8   26.02    0.42
  -2   0   8   26.14    0.48
  -2   0   8   26.09    0.44
   1   0  -8    4.05    0.16
   1   0  -8    4.23    0.16
  -1   0   8    4.10    0.19
  -1   0   8    3.80    0.18
   0   0  -8    5.84    0.17
   0   0  -8    6.00    0.17
   0   0   8    6.43    0.22
   0   0   8    6.05    0.21
   0   0   8    6.48    0.23
  -1   0  -8    1.26    0.09
  -1   0  -8    1.20    0.11
  -1   0  -8    1.22    0.09
   1   0   8    1.23    0.13
   1   0   8    1.38    0.10
  -2   0  -8    0.15    0.07
   2   0   8    0.07    0.06
   2   0   8    0.17    0.08
  -3   0  -8    3.61    0.17
   3   0   8    3.32    0.17
   3   0   8    3.64    0.20
  -4   0  -8    0.01    0.07
   4   0   8    0.01    0.07
   4   0   8   -0.06    0.09
  -5   0  -8    0.52    0.10
   5   0   8    0.55    0.11
   5   0   8    0.41    0.11
  -6   0  -8    5.16    0.22
  -6   0  -8    5.29    0.25
   6   0   8    5.06    0.24
   6   0   8    5.23    0.27
  -7   0  -8   -0.03    0.08
   7   0   8    0.04    0.09
  -8   0  -8    5.57    0.29
   8   0   8    5.44    0.29
   9  -1  -8    0.82    0.13
   9  -1  -8    0.97    0.14
  -9   1   8    1.02    0.17
   8  -1  -8    0.14    0.09
   8  -1  -8    0.19    0.09
  -8   1   8   -0.07    0.11
   7  -1  -8    0.43    0.10
   7  -1  -8    0.35    0.10
  -7   1   8    0.34    0.12
   6  -1  -8    4.63    0.22
   6  -1  -8    4.87    0.22
  -6   1   8    4.99    0.25
   5  -1  -8    1.36    0.13
   5  -1  -8    1.58    0.13
  -5   1   8    1.93    0.18
   4  -1  -8    7.56    0.24
   4  -1  -8    7.36    0.24
  -4   1   8    7.66    0.27
   3  -1  -8    1.64    0.12
   3  -1  -8    2.20    0.15
  -3   1   8    1.89    0.12
  -3   1   8    2.05    0.16
   2  -1  -8    0.76    0.09
   2  -1  -8    0.86    0.09
  -2   1   8    0.81    0.11
  -2   1   8    0.82    0.09
   1  -1  -8    3.64    0.16
   1  -1  -8    3.11    0.15
   1  -1  -8    3.40    0.12
  -1   1   8    3.88    0.16
  -1   1   8    3.43    0.17
   0  -1  -8    3.83    0.15
   0  -1  -8    3.66    0.14
   0   1   8    3.53    0.17
   0   1   8    3.70    0.14
   0   1   8    3.82    0.17
  -1  -1  -8   35.84    0.46
  -1  -1  -8   35.23    0.46
   1   1   8   35.23    0.54
   1   1   8   35.31    0.49
   1   1   8   35.27    0.53
  -2  -1  -8    0.08    0.06
  -2  -1  -8    0.04    0.05
  -2  -1  -8    0.04    0.05
   2   1   8   -0.04    0.05
   2   1   8   -0.10    0.06
  -3  -1  -8    5.70    0.19
   3   1   8    5.89    0.23
   3   1   8    5.79    0.21
  -4  -1  -8    4.66    0.18
   4   1   8    4.63    0.22
   4   1   8    4.27    0.20
  -5  -1  -8    0.04    0.07
   5   1   8    0.08    0.09
   5   1   8    0.12    0.08
  -6  -1  -8    1.19    0.14
   6   1   8    1.11    0.14
  -7  -1  -8    0.85    0.13
   7   1   8    0.90    0.14
  -8  -1  -8    0.51    0.13
   8   1   8    0.39    0.12
   9  -2  -8    0.02    0.09
   9  -2  -8    0.08    0.09
  -9   2   8   -0.16    0.10
   8  -2  -8   -0.15    0.08
   8  -2  -8    0.00    0.08
  -8   2   8    0.08    0.11
   7  -2  -8    0.65    0.11
   7  -2  -8    0.58    0.11
  -7   2   8    0.71    0.14
   6  -2  -8    0.10    0.08
   6  -2  -8    0.03    0.08
  -6   2   8    0.24    0.10
   5  -2  -8    1.12    0.12
   5  -2  -8    1.24    0.12
  -5   2   8    1.29    0.14
   4  -2  -8    2.25    0.16
   4  -2  -8    2.12    0.15
  -4   2   8    2.06    0.16
   3  -2  -8    0.12    0.07
   3  -2  -8    0.10    0.07
   3  -2  -8    0.11    0.06
  -3   2   8    0.04    0.08
   2  -2  -8    0.82    0.09
   2  -2  -8    0.84    0.08
   2  -2  -8    0.80    0.09
  -2   2   8    1.05    0.12
  -2   2   8    0.88    0.08
   1  -2  -8   26.80    0.43
   1  -2  -8   27.18    0.43
   1  -2  -8   27.26    0.38
  -1   2   8   26.85    0.45
  -1   2   8   27.03    0.40
   0  -2  -8    2.44    0.13
   0   2   8    2.09    0.12
   0   2   8    2.33    0.14
   0   2   8    2.49    0.13
  -1  -2  -8    1.74    0.11
   1   2   8    1.81    0.11
   1   2   8    1.79    0.13
   1   2   8    1.59    0.13
  -2  -2  -8    1.41    0.10
  -2  -2  -8    1.54    0.11
   2   2   8    1.63    0.12
   2   2   8    1.25    0.12
  -3  -2  -8    1.36    0.11
   3   2   8    1.60    0.13
   3   2   8    1.48    0.12
  -4  -2  -8    0.02    0.06
   4   2   8   -0.03    0.07
   4   2   8    0.02    0.07
  -5  -2  -8    4.86    0.20
  -5  -2  -8    5.23    0.23
   5   2   8    4.59    0.21
  -6  -2  -8    2.90    0.19
   6   2   8    2.59    0.19
  -7  -2  -8    0.16    0.10
   7   2   8    0.14    0.10
  -8  -2  -8    1.43    0.16
   8   2   8    1.44    0.17
  -9  -2  -8    7.92    0.33
   9   2   8    7.83    0.35
   8  -3  -8    0.85    0.13
   8  -3  -8    1.04    0.13
  -8   3   8    1.12    0.16
   7  -3  -8    0.04    0.08
   7  -3  -8    0.08    0.08
  -7   3   8    0.20    0.11
   6  -3  -8    5.68    0.24
   6  -3  -8    5.33    0.24
  -6   3   8    5.88    0.26
   5  -3  -8    0.72    0.11
   5  -3  -8    0.58    0.10
  -5   3   8    0.63    0.12
   4  -3  -8    2.05    0.15
   4  -3  -8    1.93    0.13
   4  -3  -8    1.68    0.14
  -4   3   8    1.74    0.15
   3  -3  -8    0.77    0.09
   3  -3  -8    0.67    0.09
   3  -3  -8    0.93    0.09
  -3   3   8    0.84    0.11
   2  -3  -8    2.11    0.12
   2  -3  -8    2.01    0.14
  -2   3   8    2.21    0.15
   1  -3  -8    4.78    0.18
   1  -3  -8    5.10    0.17
  -1   3   8    5.01    0.19
  -1   3   8    4.97    0.15
   0  -3  -8   25.45    0.41
   0  -3  -8   26.39    0.40
   0   3   8   25.80    0.38
   0   3   8   25.94    0.42
  -1  -3  -8    1.99    0.12
   1   3   8    1.85    0.12
   1   3   8    1.96    0.12
   1   3   8    1.78    0.12
  -2  -3  -8    2.17    0.12
   2   3   8    2.21    0.14
   2   3   8    1.98    0.13
   2   3   8    2.13    0.13
  -3  -3  -8    1.56    0.13
  -3  -3  -8    1.49    0.10
   3   3   8    1.52    0.12
  -4  -3  -8   41.20    0.55
  -4  -3  -8   41.67    0.60
   4   3   8   40.03    0.61
  -5  -3  -8    2.78    0.17
   5   3   8    2.98    0.19
  -6  -3  -8    0.18    0.09
   6   3   8    0.38    0.10
  -7  -3  -8    0.66    0.12
   7   3   8    0.77    0.13
  -8  -3  -8    0.20    0.10
   8   3   8    0.21    0.11
  -9  -3  -8    2.77    0.22
   9   3   8    2.45    0.23
   8  -4  -8   -0.01    0.09
   8  -4  -8    0.12    0.09
  -8   4   8    0.00    0.11
   7  -4  -8    2.06    0.17
   7  -4  -8    1.82    0.16
  -7   4   8    2.15    0.21
   6  -4  -8    0.57    0.10
   6  -4  -8    0.48    0.10
  -6   4   8    0.43    0.12
   5  -4  -8    6.69    0.24
   5  -4  -8    7.43    0.26
   5  -4  -8    7.06    0.26
  -5   4   8    7.02    0.28
   4  -4  -8    8.77    0.25
   4  -4  -8    8.75    0.27
   4  -4  -8    8.89    0.27
  -4   4   8    8.29    0.28
   3  -4  -8    0.27    0.08
   3  -4  -8    0.21    0.07
  -3   4   8    0.04    0.07
   2  -4  -8    4.28    0.19
   2  -4  -8    4.18    0.17
  -2   4   8    3.94    0.18
   1  -4  -8    0.05    0.06
   1  -4  -8    0.18    0.07
  -1   4   8    0.17    0.07
   0  -4  -8    8.39    0.20
   0  -4  -8    7.86    0.23
   0  -4  -8    8.03    0.22
   0   4   8    8.20    0.22
  -1  -4  -8    0.98    0.08
  -1  -4  -8    0.98    0.10
   1   4   8    0.95    0.09
  -2  -4  -8   18.86    0.32
   2   4   8   18.17    0.31
   2   4   8   18.08    0.35
  -3  -4  -8    0.31    0.07
  -3  -4  -8    0.21    0.06
   3   4   8    0.34    0.08
  -4  -4  -8    3.27    0.16
   4   4   8    3.03    0.18
  -5  -4  -8   11.19    0.30
   5   4   8   11.12    0.31
  -6  -4  -8   12.60    0.33
   6   4   8   12.60    0.35
  -7  -4  -8    4.75    0.23
   7   4   8    4.59    0.24
  -8  -4  -8    0.16    0.11
   8   4   8    0.02    0.10
  -9  -4  -8    0.02    0.10
   9   4   8    0.03    0.11
 -10  -4  -8    0.11    0.17
   7  -5  -8    2.79    0.34
   7  -5  -8    2.34    0.18
   7  -5  -8    2.11    0.17
  -7   5   8    2.27    0.22
   6  -5  -8    0.09    0.08
   6  -5  -8    0.19    0.09
   6  -5  -8    0.30    0.11
  -6   5   8    0.07    0.10
   5  -5  -8    0.33    0.09
   5  -5  -8    0.32    0.09
   5  -5  -8    0.44    0.11
  -5   5   8    0.21    0.10
   4  -5  -8    4.18    0.22
   4  -5  -8    4.20    0.21
  -4   5   8    4.66    0.22
   3  -5  -8    2.71    0.17
   3  -5  -8    2.76    0.17
  -3   5   8    2.81    0.17
   2  -5  -8    0.79    0.11
   2  -5  -8    0.95    0.11
  -2   5   8    1.04    0.12
   1  -5  -8    5.07    0.20
   1  -5  -8    5.32    0.20
  -1   5   8    5.21    0.20
   0  -5  -8   13.74    0.30
   0   5   8   13.40    0.29
  -1  -5  -8    4.69    0.16
  -1  -5  -8    4.93    0.19
   1   5   8    4.45    0.16
  -2  -5  -8    0.69    0.08
   2   5   8    0.85    0.10
   2   5   8    0.77    0.08
  -3  -5  -8    0.42    0.08
   3   5   8    0.45    0.08
  -4  -5  -8    4.19    0.18
   4   5   8    3.91    0.20
  -5  -5  -8   20.78    0.41
   5   5   8   21.06    0.44
  -6  -5  -8    7.77    0.27
   6   5   8    7.64    0.28
  -7  -5  -8    1.46    0.15
   7   5   8    1.87    0.18
  -8  -5  -8    0.08    0.10
   8   5   8   -0.02    0.09
  -9  -5  -8    0.85    0.14
   9   5   8    0.82    0.15
 -10  -5  -8    0.14    0.12
  10   5   8    0.34    0.13
   7  -6  -8    2.40    0.21
   7  -6  -8    2.92    0.21
   7  -6  -8    2.61    0.20
  -7   6   8    2.99    0.30
   6  -6  -8    2.20    0.20
   6  -6  -8    2.02    0.17
   6  -6  -8    2.33    0.18
  -6   6   8    2.79    0.23
   5  -6  -8    0.01    0.10
   5  -6  -8    0.00    0.07
   5  -6  -8    0.05    0.08
  -5   6   8   -0.04    0.08
   4  -6  -8    1.79    0.15
   4  -6  -8    2.19    0.18
  -4   6   8    2.01    0.17
   3  -6  -8    0.03    0.07
   3  -6  -8   -0.01    0.09
  -3   6   8   -0.09    0.07
   2  -6  -8    2.40    0.18
   2  -6  -8    2.34    0.18
  -2   6   8    2.43    0.16
   1  -6  -8    2.98    0.17
   1  -6  -8    2.84    0.17
  -1   6   8    3.00    0.16
   0  -6  -8    0.21    0.08
   0   6   8    0.09    0.06
  -1  -6  -8   11.30    0.29
   1   6   8   10.86    0.24
  -2  -6  -8    0.97    0.11
  -2  -6  -8    1.08    0.09
  -3  -6  -8    0.85    0.09
   3   6   8    0.81    0.11
  -4  -6  -8    0.30    0.08
   4   6   8    0.30    0.09
  -5  -6  -8    7.06    0.23
   5   6   8    6.81    0.26
  -6  -6  -8    0.17    0.09
   6   6   8    0.19    0.09
  -7  -6  -8    1.72    0.17
   7   6   8    1.48    0.16
  -8  -6  -8    0.12    0.10
   8   6   8    0.08    0.10
  -9  -6  -8    0.35    0.12
   9   6   8    0.51    0.13
 -10  -6  -8    1.78    0.20
  10   6   8    1.20    0.18
   6  -7  -8    2.16    0.18
   6  -7  -8    2.84    0.23
   6  -7  -8    2.39    0.19
  -6   7   8    2.76    0.23
   5  -7  -8    0.93    0.13
   5  -7  -8    1.41    0.17
   5  -7  -8    1.10    0.13
  -5   7   8    1.20    0.16
   4  -7  -8    0.84    0.12
   4  -7  -8    0.99    0.15
  -4   7   8    1.23    0.15
   3  -7  -8    3.32    0.22
   3  -7  -8    2.95    0.20
  -3   7   8    2.91    0.19
   2  -7  -8    1.21    0.13
   2  -7  -8    1.83    0.16
  -2   7   8    1.72    0.14
   1  -7  -8    0.21    0.10
  -1   7   8    0.45    0.09
   0  -7  -8    5.40    0.22
   0   7   8    4.90    0.19
  -1  -7  -8    3.57    0.19
  -2  -7  -8    1.72    0.15
  -3  -7  -8    0.25    0.07
  -3  -7  -8    0.21    0.09
  -4  -7  -8    0.04    0.06
   4   7   8    0.03    0.07
  -5  -7  -8    0.81    0.11
   5   7   8    0.64    0.11
  -6  -7  -8    5.60    0.23
   6   7   8    5.54    0.26
  -7  -7  -8    0.01    0.09
   7   7   8    0.03    0.10
  -8  -7  -8    0.17    0.10
   8   7   8    0.25    0.12
  -9  -7  -8    0.78    0.14
   9   7   8    0.99    0.17
 -10  -7  -8    0.06    0.11
  10   7   8   -0.06    0.12
   5  -8  -8    0.10    0.09
   5  -8  -8    0.17    0.13
  -5   8   8    0.24    0.11
   4  -8  -8    3.60    0.26
   4  -8  -8    3.71    0.22
  -4   8   8    3.15    0.22
   3  -8  -8    2.07    0.17
   3  -8  -8    1.94    0.19
  -3   8   8    3.02    0.21
   2  -8  -8    6.56    0.26
   2  -8  -8    6.55    0.28
  -2   8   8    6.37    0.25
   1  -8  -8    0.06    0.10
  -1   8   8    0.29    0.08
   0  -8  -8    1.23    0.14
  -1  -8  -8    5.51    0.24
  -2  -8  -8    6.49    0.25
  -3  -8  -8    0.11    0.09
  -4  -8  -8    0.23    0.09
  -4  -8  -8    0.16    0.09
  -5  -8  -8    0.90    0.11
   5   8   8    0.80    0.13
  -6  -8  -8    1.99    0.16
   6   8   8    2.02    0.18
  -7  -8  -8   -0.16    0.08
   7   8   8    0.09    0.10
  -8  -8  -8    0.33    0.11
   8   8   8    0.13    0.12
  -9  -8  -8    0.39    0.12
   9   8   8    0.12    0.13
 -10  -8  -8   -0.13    0.12
  10   8   8   -0.02    0.12
   4  -9  -8    0.49    0.16
   4  -9  -8    0.56    0.12
  -4   9   8    0.63    0.13
   3  -9  -8    5.19    0.26
   3  -9  -8    4.87    0.30
  -3   9   8    5.04    0.25
   2  -9  -8    0.60    0.14
   2  -9  -8    0.76    0.12
  -2   9   8    0.82    0.12
   1  -9  -8    0.20    0.11
   0  -9  -8   -0.09    0.09
  -1  -9  -8   -0.05    0.09
  -2  -9  -8    0.34    0.11
  -3  -9  -8    5.97    0.26
  -4  -9  -8    2.71    0.20
  -5  -9  -8   -0.07    0.09
  -6  -9  -8    0.42    0.11
  -6  -9  -8    0.10    0.09
  -7  -9  -8    3.05    0.21
   7   9   8    3.17    0.24
  -8  -9  -8    1.21    0.16
   8   9   8    0.86    0.15
  -9  -9  -8    0.21    0.12
   9   9   8    0.17    0.13
   2 -10  -8    0.77    0.12
   2 -10  -8    0.68    0.16
   1 -10  -8   -0.26    0.10
   0 -10  -8    0.04    0.11
  -1 -10  -8    0.88    0.15
  -2 -10  -8    0.08    0.11
  -3 -10  -8    3.77    0.24
  -4 -10  -8    0.35    0.12
  -5 -10  -8    0.02    0.10
  -6 -10  -8    0.59    0.13
  -7 -10  -8   -0.05    0.10
  -7 -10  -8   -0.09    0.09
  -8 -10  -8    0.12    0.10
   8  10   8    0.19    0.12
  -9 -10  -8    0.21    0.12
   9  10   8    0.05    0.12
   1 -11  -8    1.37    0.31
   0 -11  -8    0.40    0.14
  -1 -11  -8   -0.13    0.11
  -2 -11  -8    0.04    0.11
  -3 -11  -8   -0.20    0.09
  -4 -11  -8    0.33    0.12
  -5 -11  -8    0.34    0.12
  -6 -11  -8    0.10    0.11
  -7 -11  -8    0.11    0.11
  -8 -11  -8    0.11    0.11
  -8 -11  -8    0.02    0.12
  -2 -12  -8   -0.21    0.11
  -3 -12  -8    0.00    0.12
  -4 -12  -8   -0.01    0.11
  -5 -12  -8    0.06    0.11
  -6 -12  -8    1.10    0.17
   5   6  -9    0.16    0.11
  -5  -6   9    0.10    0.13
   4   6  -9    1.07    0.15
  -4  -6   9    0.97    0.18
   3   6  -9    0.02    0.09
  -3  -6   9    0.12    0.13
   2   6  -9    0.14    0.11
  -2  -6   9    0.14    0.13
   1   6  -9   -0.15    0.10
   7   5  -9    0.07    0.10
   6   5  -9    0.07    0.09
  -6  -5   9    0.06    0.11
  -6  -5   9    0.10    0.12
   5   5  -9    0.41    0.10
   5   5  -9    0.23    0.11
  -5  -5   9    0.26    0.12
   4   5  -9    8.33    0.31
  -4  -5   9    8.11    0.35
   3   5  -9    0.12    0.10
  -3  -5   9   -0.01    0.11
   2   5  -9    0.51    0.12
  -2  -5   9    0.31    0.13
   1   5  -9    4.24    0.24
  -1  -5   9    4.08    0.28
   0   5  -9    4.09    0.25
   0  -5   9    4.06    0.29
  -1   5  -9    0.00    0.10
   1  -5   9   -0.02    0.12
   7   4  -9    0.01    0.10
  -7  -4   9    0.10    0.13
  -7  -4   9   -0.02    0.10
   6   4  -9    1.31    0.14
  -6  -4   9    1.06    0.17
  -6  -4   9    1.54    0.17
   5   4  -9    0.31    0.10
  -5  -4   9    0.31    0.11
  -5  -4   9    0.41    0.13
   4   4  -9    0.07    0.08
   4   4  -9    0.20    0.10
  -4  -4   9    0.15    0.11
   3   4  -9    0.80    0.13
  -3  -4   9    0.98    0.15
   2   4  -9    0.43    0.11
  -2  -4   9    0.45    0.13
   1   4  -9    0.30    0.11
  -1  -4   9    0.30    0.12
   0   4  -9    0.26    0.10
   0  -4   9    0.20    0.12
  -1   4  -9   -0.05    0.09
   1  -4   9    0.06    0.11
  -2   4  -9    0.38    0.12
   2  -4   9    0.15    0.13
  -3   4  -9    0.47    0.13
   3  -4   9    0.40    0.14
   8   3  -9    0.19    0.11
   8   3  -9    0.17    0.11
  -8  -3   9    0.45    0.15
   7   3  -9    1.00    0.14
   7   3  -9    0.99    0.13
  -7  -3   9    1.25    0.18
   6   3  -9    0.04    0.09
   6   3  -9    0.09    0.09
  -6  -3   9   -0.09    0.11
  -6  -3   9    0.05    0.09
   5   3  -9    2.72    0.19
   5   3  -9    2.72    0.20
  -5  -3   9    2.83    0.21
  -5  -3   9    2.45    0.21
   4   3  -9    5.47    0.23
   4   3  -9    5.70    0.23
  -4  -3   9    5.69    0.28
  -4  -3   9    5.81    0.26
   3   3  -9    6.62    0.23
   3   3  -9    6.55    0.23
  -3  -3   9    6.45    0.28
  -3  -3   9    6.33    0.29
   2   3  -9    0.07    0.08
  -2  -3   9    0.06    0.09
   1   3  -9    0.31    0.10
  -1  -3   9    0.24    0.10
   0   3  -9    0.11    0.09
   0  -3   9    0.05    0.10
  -1   3  -9   -0.13    0.08
   1  -3   9   -0.15    0.10
  -2   3  -9    1.97    0.17
   2  -3   9    2.38    0.22
  -3   3  -9   -0.04    0.09
   3  -3   9    0.17    0.12
  -4   3  -9   -0.08    0.09
   4  -3   9    0.24    0.13
   8   2  -9    0.38    0.12
   8   2  -9    0.25    0.11
  -8  -2   9    0.22    0.13
   7   2  -9   -0.03    0.08
   7   2  -9   -0.09    0.08
  -7  -2   9   -0.01    0.11
   6   2  -9    0.57    0.11
   6   2  -9    0.60    0.11
  -6  -2   9    0.66    0.15
   5   2  -9    0.57    0.10
   5   2  -9    0.64    0.11
  -5  -2   9    0.45    0.13
  -5  -2   9    0.71    0.12
   4   2  -9    0.70    0.10
   4   2  -9    0.78    0.11
  -4  -2   9    0.58    0.11
  -4  -2   9    0.85    0.15
   3   2  -9   23.52    0.42
   3   2  -9   24.00    0.43
  -3  -2   9   23.38    0.49
  -3  -2   9   24.09    0.51
   2   2  -9   10.61    0.26
   2   2  -9   10.31    0.26
  -2  -2   9   10.77    0.33
  -2  -2   9   10.15    0.33
   1   2  -9   -0.07    0.08
  -1  -2   9   -0.02    0.08
   0   2  -9   -0.14    0.07
   0  -2   9   -0.01    0.09
  -1   2  -9    4.69    0.22
   1  -2   9    4.38    0.25
  -2   2  -9    4.67    0.23
   2  -2   9    4.33    0.25
  -3   2  -9    0.64    0.12
   3  -2   9    0.67    0.14
  -4   2  -9   -0.09    0.08
   4  -2   9   -0.15    0.10
  -5   2  -9    0.36    0.11
   5  -2   9    0.38    0.14
   8   1  -9    0.10    0.09
   8   1  -9    0.18    0.10
  -8  -1   9    0.15    0.12
   7   1  -9   -0.02    0.09
   7   1  -9    0.17    0.10
  -7  -1   9    0.05    0.11
   6   1  -9    1.76    0.15
   6   1  -9    2.63    0.20
  -6  -1   9    2.43    0.21
   5   1  -9   14.71    0.36
   5   1  -9   14.11    0.35
  -5  -1   9   15.37    0.41
   4   1  -9    0.35    0.09
   4   1  -9    0.51    0.10
  -4  -1   9    0.64    0.11
  -4  -1   9    0.42    0.12
   3   1  -9    3.34    0.17
   3   1  -9    3.39    0.18
  -3  -1   9    3.65    0.19
  -3  -1   9    3.35    0.22
   2   1  -9   13.56    0.30
   2   1  -9   13.05    0.30
  -2  -1   9   13.69    0.35
  -2  -1   9   13.18    0.36
   1   1  -9    0.13    0.06
   1   1  -9    0.11    0.06
  -1  -1   9    0.04    0.07
  -1  -1   9    0.11    0.10
   0   1  -9    1.95    0.16
   0  -1   9    1.76    0.15
  -1   1  -9    0.40    0.10
   1  -1   9    0.33    0.10
  -2   1  -9    6.74    0.25
   2  -1   9    6.88    0.28
  -3   1  -9   -0.08    0.08
   3  -1   9   -0.07    0.09
  -4   1  -9    3.87    0.21
   4  -1   9    3.59    0.24
   4  -1   9    3.38    0.20
  -5   1  -9    0.46    0.11
   5  -1   9    0.62    0.12
   5  -1   9    0.34    0.13
  -6   1  -9    0.60    0.12
   6  -1   9    0.51    0.15
   6  -1   9    0.42    0.11
   8   0  -9    0.18    0.10
   8   0  -9    0.30    0.11
  -8   0   9    0.21    0.13
   7   0  -9    1.25    0.14
   7   0  -9    0.90    0.13
  -7   0   9    1.05    0.16
   6   0  -9    1.29    0.14
   6   0  -9    1.64    0.15
  -6   0   9    1.96    0.20
   5   0  -9    0.48    0.10
   5   0  -9    0.44    0.10
  -5   0   9    0.53    0.13
   4   0  -9    6.60    0.24
   4   0  -9    6.67    0.24
  -4   0   9    6.51    0.27
   3   0  -9    0.06    0.07
   3   0  -9   -0.06    0.06
  -3   0   9   -0.07    0.06
  -3   0   9    0.04    0.09
   2   0  -9   39.28    0.56
   2   0  -9   39.22    0.56
  -2   0   9   38.53    0.63
  -2   0   9   39.50    0.60
   1   0  -9    0.25    0.07
   1   0  -9    0.43    0.07
  -1   0   9    0.65    0.12
  -1   0   9    0.36    0.09
   0   0  -9   31.23    0.45
   0   0  -9   31.83    0.45
   0   0   9   32.23    0.55
   0   0   9   32.48    0.55
  -1   0  -9    0.45    0.09
   1   0   9    0.46    0.10
  -2   0  -9    0.01    0.07
   2   0   9    0.14    0.09
   2   0   9    0.05    0.06
  -3   0  -9    0.09    0.08
   3   0   9    0.07    0.09
   3   0   9    0.15    0.07
  -4   0  -9   -0.03    0.07
   4   0   9    0.17    0.08
   4   0   9   -0.04    0.09
  -5   0  -9    2.21    0.17
   5   0   9    2.34    0.18
   5   0   9    2.15    0.19
  -6   0  -9    0.13    0.10
   6   0   9    0.01    0.09
   6   0   9    0.06    0.12
  -7   0  -9    0.63    0.14
   7   0   9    0.58    0.13
   8  -1  -9    3.21    0.22
   8  -1  -9    2.95    0.22
  -8   1   9    2.25    0.22
   7  -1  -9    2.08    0.17
   7  -1  -9    2.04    0.17
  -7   1   9    2.22    0.21
   6  -1  -9    0.29    0.09
   6  -1  -9    0.40    0.10
  -6   1   9    0.23    0.11
   5  -1  -9    0.42    0.10
   5  -1  -9    0.58    0.11
  -5   1   9    0.61    0.13
   4  -1  -9    0.00    0.07
   4  -1  -9   -0.06    0.06
  -4   1   9    0.03    0.09
   3  -1  -9    1.50    0.13
   3  -1  -9    1.17    0.12
  -3   1   9    1.19    0.14
   2  -1  -9    4.37    0.19
   2  -1  -9    4.60    0.19
  -2   1   9    4.46    0.21
  -2   1   9    4.43    0.18
   1  -1  -9    1.71    0.13
   1  -1  -9    1.75    0.13
  -1   1   9    1.84    0.15
  -1   1   9    1.77    0.14
   0  -1  -9    0.08    0.06
   0  -1  -9    0.15    0.06
   0   1   9    0.03    0.06
   0   1   9    0.05    0.07
  -1  -1  -9    3.05    0.14
  -1  -1  -9    3.12    0.16
  -1  -1  -9    3.14    0.14
   1   1   9    3.29    0.15
   1   1   9    3.58    0.18
  -2  -1  -9    1.73    0.13
   2   1   9    1.45    0.14
   2   1   9    1.63    0.13
  -3  -1  -9   17.08    0.35
   3   1   9   17.86    0.41
   3   1   9   17.08    0.36
  -4  -1  -9    0.72    0.10
   4   1   9    0.70    0.12
   4   1   9    0.73    0.11
  -5  -1  -9    4.50    0.20
   5   1   9    4.90    0.25
   5   1   9    4.64    0.23
  -6  -1  -9    2.55    0.20
   6   1   9    2.58    0.20
  -7  -1  -9    2.24    0.20
   7   1   9    2.11    0.20
  -8  -1  -9   -0.18    0.10
   8   1   9    0.12    0.11
   8  -2  -9    0.79    0.13
   8  -2  -9    0.73    0.13
  -8   2   9    0.94    0.16
   7  -2  -9    0.18    0.09
   7  -2  -9    0.30    0.10
  -7   2   9    0.33    0.12
   6  -2  -9   -0.11    0.08
   6  -2  -9    0.02    0.09
  -6   2   9   -0.02    0.10
   5  -2  -9    1.16    0.13
   5  -2  -9    1.08    0.13
  -5   2   9    1.00    0.14
   4  -2  -9    1.49    0.13
   4  -2  -9    1.23    0.13
  -4   2   9    1.65    0.16
   3  -2  -9    0.24    0.08
   3  -2  -9    0.16    0.07
  -3   2   9    0.24    0.09
   2  -2  -9    0.29    0.08
   2  -2  -9    0.28    0.08
  -2   2   9    0.63    0.11
   1  -2  -9    3.39    0.17
   1  -2  -9    3.61    0.17
   1  -2  -9    3.39    0.14
  -1   2   9    3.52    0.18
  -1   2   9    3.45    0.16
   0  -2  -9    0.00    0.05
   0  -2  -9    0.06    0.05
   0   2   9   -0.07    0.05
   0   2   9   -0.06    0.05
   0   2   9    0.01    0.07
  -1  -2  -9    0.69    0.08
   1   2   9    0.62    0.10
   1   2   9    0.64    0.09
   1   2   9    0.77    0.09
  -2  -2  -9   11.61    0.27
  -2  -2  -9   11.43    0.25
   2   2   9   11.68    0.28
   2   2   9   11.32    0.30
  -3  -2  -9    8.48    0.23
   3   2   9    8.64    0.27
   3   2   9    8.77    0.26
  -4  -2  -9    0.26    0.07
   4   2   9    0.09    0.09
   4   2   9    0.33    0.09
  -5  -2  -9    1.37    0.14
   5   2   9    1.09    0.14
  -6  -2  -9    0.00    0.09
   6   2   9    0.21    0.10
  -7  -2  -9    0.17    0.10
   7   2   9    0.25    0.10
  -8  -2  -9   -0.05    0.09
   8   2   9   -0.04    0.10
   8  -3  -9   -0.08    0.09
   8  -3  -9    0.08    0.09
  -8   3   9    0.08    0.12
   7  -3  -9   -0.03    0.08
   7  -3  -9    0.07    0.09
  -7   3   9    0.08    0.11
   6  -3  -9    1.55    0.15
   6  -3  -9    1.72    0.16
  -6   3   9    1.25    0.16
   5  -3  -9    0.68    0.11
   5  -3  -9    0.45    0.10
  -5   3   9    0.80    0.13
   4  -3  -9    3.38    0.19
   4  -3  -9    2.98    0.19
  -4   3   9    3.43    0.20
   3  -3  -9    0.62    0.09
   3  -3  -9    0.56    0.09
  -3   3   9    0.72    0.11
   2  -3  -9   -0.05    0.05
   2  -3  -9   -0.01    0.06
   2  -3  -9   -0.04    0.06
  -2   3   9    0.06    0.07
   1  -3  -9    3.29    0.15
   1  -3  -9    3.01    0.17
  -1   3   9    3.34    0.18
   0  -3  -9    2.27    0.13
   0  -3  -9    2.31    0.15
   0   3   9    2.20    0.13
   0   3   9    2.13    0.15
  -1  -3  -9    0.11    0.06
   1   3   9    0.01    0.06
   1   3   9    0.00    0.06
   1   3   9    0.02    0.06
  -2  -3  -9    0.84    0.08
   2   3   9    0.92    0.10
   2   3   9    0.93    0.10
   2   3   9    1.19    0.12
  -3  -3  -9    4.32    0.16
  -3  -3  -9    4.47    0.16
   3   3   9    4.32    0.19
   3   3   9    4.43    0.20
  -4  -3  -9   -0.04    0.07
   4   3   9   -0.03    0.07
  -5  -3  -9    0.86    0.12
   5   3   9    0.57    0.11
  -6  -3  -9    0.09    0.09
   6   3   9    0.22    0.09
  -7  -3  -9   -0.11    0.09
   7   3   9   -0.04    0.09
  -8  -3  -9    0.05    0.10
   8   3   9   -0.07    0.10
  -9  -3  -9    0.12    0.12
   9   3   9    0.11    0.13
   7  -4  -9    0.40    0.11
   7  -4  -9    0.42    0.11
  -7   4   9    0.51    0.13
   6  -4  -9    0.36    0.10
   6  -4  -9    0.36    0.10
  -6   4   9    0.24    0.11
   5  -4  -9    1.11    0.13
   5  -4  -9    0.79    0.12
  -5   4   9    1.06    0.14
   4  -4  -9   -0.05    0.07
   4  -4  -9   -0.07    0.07
   4  -4  -9   -0.04    0.07
  -4   4   9   -0.12    0.08
   3  -4  -9    0.40    0.09
   3  -4  -9    0.52    0.09
   3  -4  -9    0.28    0.09
  -3   4   9    0.34    0.10
   2  -4  -9    0.31    0.08
   2  -4  -9    0.14    0.07
  -2   4   9    0.26    0.08
   1  -4  -9    3.79    0.17
   1  -4  -9    3.40    0.18
  -1   4   9    3.89    0.18
   0  -4  -9    1.05    0.11
   0  -4  -9    1.30    0.11
   0   4   9    1.06    0.11
  -1  -4  -9    0.62    0.09
  -1  -4  -9    0.36    0.08
  -1  -4  -9    0.56    0.08
   1   4   9    0.48    0.08
  -2  -4  -9    1.23    0.10
  -2  -4  -9    1.44    0.11
   2   4   9    1.52    0.12
   2   4   9    1.60    0.13
  -3  -4  -9    0.09    0.07
   3   4   9   -0.06    0.07
  -4  -4  -9    1.21    0.12
   4   4   9    1.50    0.14
  -5  -4  -9    1.00    0.13
   5   4   9    0.90    0.13
  -6  -4  -9    4.07    0.21
   6   4   9    3.89    0.22
  -7  -4  -9    3.19    0.21
   7   4   9    3.24    0.23
  -8  -4  -9    1.18    0.16
   8   4   9    1.44    0.18
  -9  -4  -9    1.34    0.18
   9   4   9    1.15    0.18
   7  -5  -9    0.08    0.10
   7  -5  -9    0.20    0.10
  -7   5   9    0.26    0.12
   6  -5  -9   -0.09    0.09
   6  -5  -9    0.02    0.09
  -6   5   9    0.05    0.10
   5  -5  -9   -0.08    0.08
   5  -5  -9   -0.05    0.08
   5  -5  -9    0.03    0.09
  -5   5   9   -0.01    0.09
   4  -5  -9    0.28    0.09
   4  -5  -9    0.39    0.10
   4  -5  -9    0.41    0.10
  -4   5   9    0.36    0.10
   3  -5  -9    1.19    0.12
   3  -5  -9    1.20    0.13
  -3   5   9    1.22    0.14
   2  -5  -9    0.28    0.09
   2  -5  -9    0.23    0.09
  -2   5   9    0.33    0.09
   1  -5  -9    0.08    0.08
   1  -5  -9    0.25    0.08
  -1   5   9    0.13    0.07
   0  -5  -9    4.25    0.19
   0  -5  -9    4.58    0.20
   0   5   9    4.36    0.18
  -1  -5  -9   26.85    0.46
  -1  -5  -9   14.63    5.17
   1   5   9   27.58    0.44
  -2  -5  -9    0.06    0.06
   2   5   9   -0.05    0.07
  -3  -5  -9    2.54    0.15
   3   5   9    2.34    0.16
  -4  -5  -9   -0.07    0.07
   4   5   9   -0.08    0.07
  -5  -5  -9   -0.09    0.07
   5   5   9   -0.06    0.08
  -6  -5  -9    0.23    0.09
   6   5   9    0.24    0.10
  -7  -5  -9    0.78    0.13
   7   5   9    0.65    0.13
  -8  -5  -9    0.08    0.10
   8   5   9    0.04    0.10
  -9  -5  -9   -0.11    0.09
   9   5   9   -0.05    0.11
   6  -6  -9   -0.05    0.08
   6  -6  -9    0.02    0.10
   6  -6  -9   -0.03    0.09
  -6   6   9   -0.09    0.09
   5  -6  -9    0.11    0.09
   5  -6  -9    0.16    0.11
   5  -6  -9    0.23    0.09
  -5   6   9    0.38    0.12
   4  -6  -9    0.25    0.09
   4  -6  -9    0.33    0.11
  -4   6   9    0.11    0.09
   3  -6  -9    0.94    0.13
   3  -6  -9    0.68    0.11
  -3   6   9    0.78    0.12
   2  -6  -9    0.42    0.10
   2  -6  -9    0.50    0.10
  -2   6   9    0.35    0.09
   1  -6  -9    1.29    0.13
   1  -6  -9    1.32    0.12
  -1   6   9    1.30    0.13
   0  -6  -9    0.54    0.10
   0  -6  -9    0.36    0.08
   0   6   9    0.57    0.09
  -1  -6  -9    0.17    0.08
  -2  -6  -9    7.13    0.24
  -3  -6  -9    1.78    0.13
   3   6   9    1.10    0.13
  -4  -6  -9    4.88    0.20
   4   6   9    4.53    0.22
  -5  -6  -9    0.36    0.10
   5   6   9    0.58    0.12
  -6  -6  -9    7.53    0.27
   6   6   9    7.66    0.30
  -7  -6  -9    0.21    0.10
   7   6   9    0.29    0.11
  -8  -6  -9    2.99    0.23
   8   6   9    3.18    0.24
  -9  -6  -9    0.26    0.12
   9   6   9   -0.07    0.10
   5  -7  -9    0.61    0.13
   5  -7  -9    0.73    0.12
   5  -7  -9    0.67    0.15
  -5   7   9    0.59    0.13
   4  -7  -9    0.05    0.11
   4  -7  -9   -0.17    0.07
  -4   7   9    0.05    0.09
   3  -7  -9    0.12    0.09
   3  -7  -9    0.03    0.10
  -3   7   9    0.10    0.09
   2  -7  -9    1.52    0.15
   2  -7  -9    1.79    0.17
  -2   7   9    1.70    0.15
   1  -7  -9    0.14    0.09
   1  -7  -9   -0.15    0.06
  -1   7   9   -0.05    0.06
   0  -7  -9   -0.09    0.08
  -1  -7  -9    6.53    0.25
  -2  -7  -9   10.04    0.30
  -3  -7  -9    1.84    0.16
  -4  -7  -9    1.79    0.14
   4   7   9    1.64    0.16
  -5  -7  -9    3.12    0.18
   5   7   9    3.19    0.21
  -6  -7  -9    0.15    0.10
   6   7   9    0.15    0.10
  -7  -7  -9    1.38    0.15
   7   7   9    1.32    0.18
  -8  -7  -9    0.35    0.12
   8   7   9    0.68    0.15
  -9  -7  -9    4.60    0.27
   9   7   9    4.67    0.29
   4  -8  -9    4.93    0.27
   4  -8  -9    4.61    0.28
  -4   8   9    4.92    0.26
   3  -8  -9    4.52    0.24
   3  -8  -9    4.87    0.27
  -3   8   9    4.39    0.23
   2  -8  -9    5.80    0.26
   2  -8  -9    6.07    0.28
  -2   8   9    5.87    0.25
   1  -8  -9    0.75    0.13
   1  -8  -9    0.82    0.12
   0  -8  -9    0.40    0.11
  -1  -8  -9    0.36    0.11
  -2  -8  -9    3.75    0.22
  -3  -8  -9    4.02    0.22
  -4  -8  -9    0.46    0.11
  -5  -8  -9   -0.13    0.07
   5   8   9   -0.07    0.09
  -6  -8  -9    3.75    0.20
   6   8   9    3.84    0.24
  -7  -8  -9   -0.03    0.09
   7   8   9    0.17    0.11
  -8  -8  -9    0.03    0.10
   8   8   9    0.02    0.12
  -9  -8  -9   -0.19    0.09
   9   8   9   -0.07    0.12
   3  -9  -9    5.63    0.28
   3  -9  -9    6.04    0.32
  -3   9   9    5.22    0.27
   2  -9  -9    0.17    0.12
   2  -9  -9    0.21    0.09
   1  -9  -9   -3.81    4.82
   1  -9  -9    0.86    0.15
   0  -9  -9    0.17    0.11
  -1  -9  -9    1.13    0.15
  -2  -9  -9   -0.01    0.09
  -3  -9  -9    0.08    0.10
  -4  -9  -9    2.51    0.20
  -5  -9  -9    0.38    0.12
  -6  -9  -9    0.22    0.11
  -6  -9  -9    0.16    0.10
  -7  -9  -9    2.10    0.18
   7   9   9    1.60    0.19
  -8  -9  -9   -0.04    0.10
   8   9   9    0.04    0.11
  -9  -9  -9    0.59    0.14
   9   9   9    0.56    0.16
   2 -10  -9    1.94    0.17
   2 -10  -9    1.70    0.21
   1 -10  -9    0.40    0.14
   1 -10  -9  -13.48    9.74
   0 -10  -9    0.10    0.12
  -1 -10  -9    1.11    0.16
  -2 -10  -9    3.80    0.25
  -3 -10  -9    3.71    0.24
  -4 -10  -9    1.69    0.18
  -5 -10  -9    2.07    0.19
  -6 -10  -9   -0.09    0.10
  -7 -10  -9    0.06    0.12
  -7 -10  -9    0.14    0.12
  -8 -10  -9    0.08    0.10
   8  10   9    0.00    0.12
   0 -11  -9   -0.09    0.13
  -1 -11  -9    0.02    0.11
  -2 -11  -9   -0.08    0.12
  -3 -11  -9    0.27    0.13
  -4 -11  -9    0.32    0.12
  -5 -11  -9    2.61    0.23
  -6 -11  -9    1.51    0.18
  -7 -11  -9    0.07    0.12
   4   5 -10    0.01    0.10
  -4  -5  10    0.10    0.11
   3   5 -10    0.65    0.14
  -3  -5  10    0.86    0.17
   2   5 -10    0.00    0.10
  -2  -5  10    0.13    0.13
   1   5 -10   -0.01    0.13
  -1  -5  10    0.50    0.24
   6   4 -10    0.02    0.10
  -6  -4  10   -0.10    0.11
  -6  -4  10   -0.08    0.09
   5   4 -10    0.96    0.13
  -5  -4  10    1.02    0.18
  -5  -4  10    0.78    0.15
   4   4 -10    0.04    0.09
  -4  -4  10    0.14    0.11
   3   4 -10    0.77    0.14
  -3  -4  10    0.69    0.15
   2   4 -10    0.28    0.11
  -2  -4  10    0.16    0.12
   1   4 -10   -0.20    0.08
  -1  -4  10    0.25    0.13
   0   4 -10    2.48    0.22
   0  -4  10    2.27    0.22
  -1   4 -10    0.75    0.14
   1  -4  10    0.94    0.18
  -2   4 -10    3.17    0.28
   7   3 -10    0.31    0.11
   7   3 -10    0.19    0.11
  -7  -3  10    0.62    0.16
   6   3 -10    0.05    0.09
   6   3 -10    0.07    0.09
  -6  -3  10    0.11    0.12
   5   3 -10   -0.04    0.08
   5   3 -10   -0.02    0.08
  -5  -3  10    0.19    0.12
  -5  -3  10    0.09    0.09
   4   3 -10    0.60    0.11
   4   3 -10    0.49    0.11
  -4  -3  10    0.46    0.14
  -4  -3  10    0.98    0.15
  -3  -3  10    1.84    0.19
   2   3 -10    1.06    0.15
  -2  -3  10    0.67    0.14
   1   3 -10    0.54    0.12
  -1  -3  10    0.80    0.15
   0   3 -10    1.20    0.15
   0  -3  10    1.22    0.17
  -1   3 -10    0.05    0.10
   1  -3  10   -0.18    0.10
  -2   3 -10    0.00    0.10
   2  -3  10   -0.02    0.11
  -3   3 -10    1.68    0.18
   3  -3  10    1.94    0.22
   7   2 -10    0.74    0.14
   7   2 -10    0.91    0.14
  -7  -2  10    1.40    0.19
   6   2 -10    0.03    0.09
   6   2 -10   -0.11    0.08
  -6  -2  10    0.02    0.12
   5   2 -10    0.17    0.09
   5   2 -10    0.11    0.08
  -5  -2  10    0.17    0.13
  -5  -2  10    0.05    0.12
   4   2 -10    2.55    0.18
   4   2 -10    2.66    0.19
  -4  -2  10    2.30    0.19
  -4  -2  10    2.44    0.22
   3   2 -10   -0.04    0.07
   3   2 -10   -0.01    0.07
  -3  -2  10    0.05    0.09
  -3  -2  10    0.14    0.11
   2   2 -10    0.21    0.09
  -2  -2  10    0.22    0.10
   1   2 -10    0.04    0.09
  -1  -2  10    0.03    0.09
   0   2 -10    0.09    0.09
   0  -2  10    0.07    0.09
  -1   2 -10    1.16    0.14
   1  -2  10    1.18    0.16
  -2   2 -10    0.58    0.12
   2  -2  10    0.53    0.13
  -3   2 -10    0.25    0.11
   3  -2  10    0.10    0.12
  -4   2 -10    0.05    0.10
   4  -2  10    0.22    0.13
   8   1 -10   -0.32    0.14
   8   1 -10   -0.15    0.16
   7   1 -10    2.00    0.18
   7   1 -10    2.18    0.18
  -7  -1  10    1.99    0.21
   6   1 -10   -0.03    0.09
   6   1 -10    0.01    0.08
  -6  -1  10    0.07    0.12
   5   1 -10    0.76    0.12
   5   1 -10    0.94    0.12
  -5  -1  10    1.26    0.17
   4   1 -10    0.21    0.08
   4   1 -10    0.04    0.08
  -4  -1  10    0.20    0.11
  -4  -1  10    0.15    0.09
   3   1 -10    1.81    0.14
   3   1 -10    1.60    0.14
  -3  -1  10    1.73    0.16
  -3  -1  10    2.19    0.20
   2   1 -10    7.03    0.24
   2   1 -10    7.53    0.24
  -2  -1  10    7.64    0.28
  -2  -1  10    7.46    0.29
   1   1 -10    0.15    0.09
  -1  -1  10   -0.10    0.08
   0   1 -10    1.02    0.13
   0  -1  10    0.89    0.13
  -1   1 -10    4.72    0.23
   1  -1  10    4.44    0.24
  -2   1 -10    0.34    0.11
   2  -1  10    0.26    0.11
  -3   1 -10    0.23    0.11
   3  -1  10    0.31    0.12
  -4   1 -10    0.07    0.09
   4  -1  10    0.26    0.12
  -5   1 -10    0.95    0.14
   5  -1  10    1.18    0.18
   8   0 -10    0.34    0.13
   8   0 -10    0.42    0.13
  -8   0  10    0.30    0.15
   7   0 -10    0.18    0.10
   7   0 -10   -0.01    0.09
  -7   0  10    0.08    0.12
   6   0 -10    1.44    0.15
   6   0 -10    1.41    0.15
  -6   0  10    1.48    0.18
   5   0 -10    0.16    0.09
   5   0 -10    0.17    0.09
  -5   0  10    0.21    0.11
   4   0 -10    4.17    0.21
   4   0 -10    4.03    0.21
  -4   0  10    4.30    0.25
   3   0 -10    6.50    0.24
   3   0 -10    6.57    0.24
  -3   0  10    6.58    0.25
  -3   0  10    6.53    0.28
   2   0 -10    9.71    0.27
   2   0 -10    9.91    0.27
  -2   0  10    9.38    0.32
  -2   0  10    9.81    0.30
   1   0 -10    2.13    0.15
   1   0 -10    1.65    0.12
  -1   0  10    2.34    0.19
  -1   0  10    1.89    0.16
   0   0 -10   35.25    0.58
   0   0  10   35.40    0.61
  -1   0 -10    0.18    0.09
   1   0  10    0.12    0.09
  -2   0 -10   -0.04    0.08
   2   0  10   -0.02    0.09
  -3   0 -10    3.78    0.20
   3   0  10    4.06    0.25
  -4   0 -10    1.84    0.16
   4   0  10    2.01    0.19
   4   0  10    1.62    0.18
  -5   0 -10    0.24    0.10
   5   0  10    0.33    0.12
   5   0  10    0.26    0.10
   6   0  10    0.48    0.13
   6   0  10    0.49    0.14
   8  -1 -10    0.65    0.15
   8  -1 -10    0.50    0.14
  -8   1  10    0.77    0.25
   7  -1 -10    0.37    0.11
   7  -1 -10    0.38    0.11
  -7   1  10    0.46    0.14
   6  -1 -10    2.13    0.17
   6  -1 -10    2.18    0.17
  -6   1  10    2.69    0.23
   5  -1 -10    0.88    0.12
   5  -1 -10    0.52    0.11
  -5   1  10    0.80    0.14
   4  -1 -10    0.08    0.08
   4  -1 -10    0.14    0.08
  -4   1  10    0.13    0.11
   3  -1 -10    1.49    0.13
   3  -1 -10    1.47    0.13
  -3   1  10    1.83    0.17
   2  -1 -10    5.40    0.22
   2  -1 -10    5.59    0.22
  -2   1  10    5.12    0.24
  -2   1  10    5.30    0.21
   1  -1 -10    8.93    0.25
   1  -1 -10    8.75    0.25
  -1   1  10    8.94    0.30
  -1   1  10    8.76    0.27
   0  -1 -10    0.98    0.10
   0  -1 -10    0.94    0.10
   0   1  10    1.09    0.13
   0   1  10    0.96    0.12
  -1  -1 -10    9.87    0.29
   1   1  10   10.51    0.32
  -2  -1 -10    4.34    0.20
   2   1  10    4.70    0.23
  -3  -1 -10    0.02    0.08
   3   1  10    0.00    0.06
   3   1  10    0.13    0.09
  -4  -1 -10    0.05    0.08
   4   1  10    0.04    0.08
   4   1  10    0.00    0.09
   5   1  10    0.32    0.10
   5   1  10    0.25    0.11
  -6  -1 -10    5.35    0.27
   6   1  10    5.35    0.26
  -7  -1 -10    0.02    0.11
   7   1  10    0.06    0.09
   7  -2 -10    0.23    0.10
   7  -2 -10    0.13    0.10
  -7   2  10    0.11    0.12
   6  -2 -10    0.34    0.11
   6  -2 -10    0.38    0.11
  -6   2  10    0.35    0.13
   5  -2 -10    7.42    0.28
   5  -2 -10    6.98    0.27
  -5   2  10    6.57    0.30
   4  -2 -10    3.41    0.21
   4  -2 -10    3.50    0.21
  -4   2  10    3.37    0.22
   3  -2 -10   -0.02    0.07
   3  -2 -10   -0.01    0.07
  -3   2  10    0.11    0.09
   2  -2 -10   11.02    0.30
   2  -2 -10   11.31    0.30
  -2   2  10   10.83    0.33
   1  -2 -10   11.15    0.29
   1  -2 -10   11.14    0.29
  -1   2  10   11.33    0.29
  -1   2  10   10.68    0.31
   0  -2 -10    1.92    0.14
   0  -2 -10    2.26    0.14
   0   2  10    2.21    0.17
   0   2  10    1.93    0.15
  -1  -2 -10    0.21    0.06
  -1  -2 -10    0.15    0.06
   1   2  10    0.19    0.08
   1   2  10    0.23    0.09
   1   2  10    0.14    0.07
  -2  -2 -10    4.24    0.19
   2   2  10    4.70    0.22
   2   2  10    4.41    0.19
  -3  -2 -10    0.82    0.11
   3   2  10    0.69    0.12
   3   2  10    0.89    0.11
  -4  -2 -10    0.25    0.12
   4   2  10    0.20    0.08
   4   2  10    0.17    0.09
  -5  -2 -10    2.43    0.19
   5   2  10    1.98    0.17
  -6  -2 -10    1.24    0.16
   6   2  10    1.62    0.17
  -7  -2 -10    0.18    0.11
   7   2  10    0.20    0.11
   7  -3 -10    0.02    0.09
   7  -3 -10   -0.04    0.09
  -7   3  10    0.23    0.12
   6  -3 -10    0.04    0.09
   6  -3 -10    0.08    0.09
  -6   3  10    0.09    0.10
   5  -3 -10    0.29    0.10
   5  -3 -10    0.60    0.11
  -5   3  10    0.41    0.12
   4  -3 -10    7.34    0.27
   4  -3 -10    6.72    0.27
  -4   3  10    7.44    0.29
   3  -3 -10    0.29    0.09
   3  -3 -10    0.28    0.09
  -3   3  10    0.45    0.11
   2  -3 -10    0.13    0.08
   2  -3 -10   -0.01    0.07
  -2   3  10    0.02    0.08
   1  -3 -10   38.55    0.58
   1  -3 -10   38.12    0.58
  -1   3  10   37.30    0.61
   0  -3 -10    1.25    0.12
   0  -3 -10    1.55    0.12
   0   3  10    1.35    0.12
   0   3  10    1.58    0.15
  -1  -3 -10    5.87    0.20
   1   3  10    5.61    0.20
   1   3  10    5.36    0.21
   1   3  10    6.09    0.22
  -2  -3 -10    1.23    0.11
  -2  -3 -10    0.93    0.09
   2   3  10    1.21    0.12
   2   3  10    0.92    0.11
   2   3  10    1.14    0.12
  -3  -3 -10   12.98    0.32
   3   3  10   12.34    0.32
   3   3  10   12.94    0.34
  -4  -3 -10    3.49    0.21
   4   3  10    3.66    0.20
  -5  -3 -10    1.38    0.15
   5   3  10    1.16    0.14
  -6  -3 -10    0.68    0.13
   6   3  10    0.50    0.12
  -7  -3 -10    0.14    0.11
   7   3  10    0.19    0.11
  -8  -3 -10   -0.05    0.10
   8   3  10    0.03    0.10
   7  -4 -10    0.04    0.10
   7  -4 -10    0.01    0.10
  -7   4  10    0.10    0.11
   6  -4 -10    0.10    0.10
   6  -4 -10    0.05    0.09
  -6   4  10    0.15    0.11
   5  -4 -10    0.14    0.09
   5  -4 -10    0.12    0.09
  -5   4  10    0.18    0.11
   4  -4 -10    1.37    0.14
   4  -4 -10    1.61    0.15
  -4   4  10    1.67    0.17
   3  -4 -10    2.89    0.19
   3  -4 -10    3.42    0.20
  -3   4  10    2.73    0.19
   2  -4 -10    0.07    0.07
   2  -4 -10    0.05    0.07
  -2   4  10    0.03    0.07
   1  -4 -10    1.78    0.14
   1  -4 -10    1.88    0.14
  -1   4  10    2.19    0.17
   0  -4 -10    3.34    0.18
   0  -4 -10    3.31    0.17
   0   4  10    3.27    0.18
  -1  -4 -10    1.48    0.12
  -1  -4 -10    1.48    0.13
  -1  -4 -10    1.56    0.14
   1   4  10    1.46    0.13
  -2  -4 -10    3.72    0.17
  -2  -4 -10    4.12    0.18
   2   4  10    4.07    0.20
   2   4  10    4.40    0.18
  -3  -4 -10    0.21    0.08
  -3  -4 -10    0.33    0.07
   3   4  10    0.29    0.09
  -4  -4 -10   10.81    0.31
   4   4  10   10.88    0.32
  -5  -4 -10    0.40    0.11
   5   4  10    0.41    0.11
  -6  -4 -10    2.48    0.19
   6   4  10    2.64    0.21
  -7  -4 -10    4.25    0.26
   7   4  10    4.65    0.26
  -8  -4 -10    1.09    0.16
   8   4  10    1.08    0.17
   6  -5 -10   -0.02    0.09
   6  -5 -10    0.01    0.09
  -6   5  10   -0.06    0.10
   5  -5 -10    0.10    0.09
   5  -5 -10    0.17    0.10
  -5   5  10    0.33    0.12
   4  -5 -10    1.35    0.15
   4  -5 -10    1.43    0.15
  -4   5  10    1.66    0.17
   3  -5 -10    0.23    0.09
   3  -5 -10    0.18    0.08
  -3   5  10    0.12    0.09
   2  -5 -10    1.25    0.13
   2  -5 -10    0.97    0.12
  -2   5  10    1.13    0.14
   1  -5 -10    0.14    0.08
   1  -5 -10    0.21    0.08
  -1   5  10    0.04    0.07
   0  -5 -10   19.97    0.40
   0  -5 -10   20.14    0.41
   0   5  10   20.14    0.40
  -1  -5 -10    0.33    0.09
  -1  -5 -10    0.37    0.09
   1   5  10    0.45    0.09
  -2  -5 -10    4.08    0.22
  -2  -5 -10    3.87    0.19
  -2  -5 -10    3.82    0.18
   2   5  10    3.88    0.20
  -3  -5 -10    0.07    0.07
   3   5  10    0.20    0.09
  -4  -5 -10    5.61    0.23
   4   5  10    5.92    0.25
  -5  -5 -10    0.12    0.09
   5   5  10    0.21    0.09
  -6  -5 -10    1.69    0.16
   6   5  10    1.87    0.18
  -7  -5 -10    1.13    0.15
   7   5  10    1.25    0.16
  -8  -5 -10    0.29    0.12
   8   5  10    0.50    0.14
   6  -6 -10    0.35    0.12
   6  -6 -10    0.37    0.12
   5  -6 -10    0.40    0.11
   5  -6 -10    0.41    0.11
  -5   6  10    0.34    0.12
   4  -6 -10    0.55    0.12
   4  -6 -10    0.32    0.10
   4  -6 -10    0.75    0.12
  -4   6  10    0.67    0.13
   3  -6 -10    0.15    0.10
   3  -6 -10   -0.08    0.07
  -3   6  10    0.01    0.08
   2  -6 -10    0.21    0.09
   2  -6 -10    0.28    0.10
  -2   6  10    0.16    0.09
   1  -6 -10    0.91    0.12
   1  -6 -10    0.89    0.12
  -1   6  10    0.88    0.12
   0  -6 -10    1.63    0.14
   0  -6 -10    2.14    0.16
   0   6  10    2.33    0.16
  -1  -6 -10    0.81    0.11
  -1  -6 -10    0.77    0.12
  -2  -6 -10    0.10    0.09
  -3  -6 -10    0.36    0.13
   3   6  10    0.22    0.10
  -4  -6 -10    0.37    0.09
   4   6  10    0.31    0.10
  -5  -6 -10   21.25    0.44
   5   6  10   20.98    0.48
  -6  -6 -10    1.05    0.14
   6   6  10    1.34    0.16
  -7  -6 -10    0.05    0.09
   7   6  10   -0.02    0.10
  -8  -6 -10   -0.03    0.11
   8   6  10    0.24    0.12
   5  -7 -10    0.17    0.10
   5  -7 -10   -0.04    0.08
   5  -7 -10    0.11    0.11
  -5   7  10    0.09    0.10
   4  -7 -10    0.12    0.11
   4  -7 -10    0.04    0.09
  -4   7  10    0.24    0.10
   3  -7 -10    0.73    0.14
   3  -7 -10    0.60    0.12
  -3   7  10    0.45    0.11
   2  -7 -10    0.34    0.11
   2  -7 -10    0.18    0.09
  -2   7  10    0.31    0.10
   1  -7 -10    0.01    0.08
   1  -7 -10    0.06    0.09
  -1   7  10    0.08    0.07
   0  -7 -10    1.21    0.13
   0  -7 -10    1.04    0.14
  -1  -7 -10    0.27    0.10
  -2  -7 -10    0.07    0.09
  -3  -7 -10    1.40    0.15
   4   7  10    9.36    0.32
  -5  -7 -10    1.17    0.13
   5   7  10    1.10    0.15
  -6  -7 -10    2.91    0.20
   6   7  10    2.79    0.22
  -7  -7 -10    0.10    0.10
   7   7  10    0.02    0.11
  -8  -7 -10    0.95    0.15
   8   7  10    0.91    0.16
   4  -8 -10    0.14    0.10
   4  -8 -10    0.15    0.13
  -4   8  10    0.40    0.12
   3  -8 -10    0.11    0.09
   3  -8 -10    0.21    0.12
  -3   8  10    0.21    0.11
   2  -8 -10    0.13    0.09
   2  -8 -10    0.08    0.11
  -2   8  10    0.05    0.09
   1  -8 -10    0.26    0.09
   1  -8 -10    0.33    0.11
   0  -8 -10   -6.12    5.26
   0  -8 -10    0.75    0.14
  -1  -8 -10    2.19    0.18
  -2  -8 -10    0.34    0.12
  -3  -8 -10    0.08    0.10
  -4  -8 -10    0.51    0.12
   5   8  10    0.06    0.10
  -6  -8 -10   -0.03    0.09
   6   8  10    0.05    0.10
  -7  -8 -10    0.42    0.12
   7   8  10    0.38    0.13
  -8  -8 -10    0.07    0.11
   8   8  10    0.11    0.12
   3  -9 -10    0.11    0.10
   3  -9 -10    0.08    0.13
   2  -9 -10    0.12    0.09
   2  -9 -10   -0.03    0.12
   1  -9 -10    0.26    0.13
   1  -9 -10    0.38    0.10
   0  -9 -10   -0.05    0.10
  -1  -9 -10   -0.09    0.10
  -2  -9 -10    0.12    0.11
  -3  -9 -10    0.00    0.10
  -4  -9 -10    1.49    0.17
  -5  -9 -10    0.68    0.14
  -6  -9 -10    1.28    0.16
  -7  -9 -10   -0.07    0.09
   7   9  10    0.07    0.12
  -8  -9 -10   -0.09    0.10
   8   9  10    0.01    0.12
   1 -10 -10   -0.01    0.08
   1 -10 -10   -0.23    0.11
   0 -10 -10    0.28    0.13
  -1 -10 -10    0.13    0.12
  -2 -10 -10    0.31    0.13
  -3 -10 -10    0.01    0.11
  -4 -10 -10    0.42    0.14
  -5 -10 -10    1.37    0.18
  -6 -10 -10    0.14    0.11
  -7 -10 -10    0.17    0.12
  -1 -11 -10   -0.07    0.13
  -2 -11 -10    0.88    0.17
  -3 -11 -10    1.37    0.19
  -4 -11 -10    0.10    0.12
  -5 -11 -10    0.33    0.14
  -6 -11 -10    1.01    0.23
   5   3 -11    0.12    0.10
   5   3 -11   -0.05    0.09
  -5  -3  11    0.07    0.10
  -5  -3  11   -0.03    0.12
  -4  -3  11    2.89    0.25
  -4  -3  11    3.35    0.25
   3   3 -11    1.56    0.18
  -3  -3  11    1.71    0.19
   2   3 -11    4.50    0.25
  -2  -3  11    4.35    0.28
   1   3 -11    1.26    0.16
  -1  -3  11    1.22    0.18
   0   3 -11    0.06    0.11
   0  -3  11    0.12    0.12
  -1   3 -11   -0.01    0.10
   1  -3  11    0.12    0.13
   6   2 -11    0.01    0.09
   6   2 -11    0.02    0.09
  -6  -2  11    0.06    0.13
   5   2 -11    0.20    0.10
   5   2 -11    0.16    0.10
  -5  -2  11    0.20    0.13
   4   2 -11    1.26    0.14
   4   2 -11    0.96    0.12
  -4  -2  11    1.22    0.18
  -4  -2  11    1.18    0.15
  -3  -2  11    3.39    0.23
  -3  -2  11    3.96    0.26
   2   2 -11    0.72    0.13
  -2  -2  11    0.56    0.13
   1   2 -11    0.51    0.12
  -1  -2  11    0.51    0.13
   0   2 -11    0.08    0.10
   0  -2  11    0.28    0.12
   1  -2  11    0.51    0.14
  -2   2 -11    0.79    0.14
   2  -2  11    0.77    0.16
  -3   2 -11    0.57    0.14
   3  -2  11    0.65    0.18
   6   1 -11    0.00    0.09
   6   1 -11    0.03    0.09
  -6  -1  11    0.01    0.13
   5   1 -11    0.72    0.12
   5   1 -11    0.97    0.13
  -5  -1  11    1.12    0.17
   4   1 -11    0.13    0.09
   4   1 -11    0.15    0.09
  -4  -1  11    0.19    0.12
   3   1 -11    0.03    0.08
   3   1 -11    0.07    0.08
  -3  -1  11    0.17    0.09
  -3  -1  11    0.27    0.12
  -2  -1  11    0.74    0.13
  -2  -1  11    1.06    0.16
   1   1 -11    1.31    0.15
  -1  -1  11    1.26    0.15
   0   1 -11    0.01    0.09
   0  -1  11    0.05    0.09
  -1   1 -11    3.52    0.22
   1  -1  11    3.18    0.23
  -2   1 -11    1.10    0.15
   2  -1  11    0.80    0.15
  -3   1 -11    0.02    0.10
   3  -1  11    0.11    0.12
  -4   1 -11    0.34    0.12
   4  -1  11    0.40    0.15
   7   0 -11    0.03    0.12
   7   0 -11    0.25    0.13
  -7   0  11    0.15    0.20
   6   0 -11   -0.12    0.08
   6   0 -11    0.01    0.09
  -6   0  11   -0.01    0.11
   5   0 -11    1.80    0.16
   5   0 -11    1.98    0.17
  -5   0  11    2.22    0.21
   4   0 -11   -0.04    0.07
   4   0 -11    0.14    0.08
  -4   0  11    0.03    0.11
   3   0 -11    0.75    0.11
   3   0 -11    0.70    0.11
  -3   0  11    0.86    0.15
   2   0 -11    6.08    0.24
   2   0 -11    6.51    0.24
  -2   0  11    6.03    0.25
  -2   0  11    6.89    0.30
  -1   0  11    0.46    0.11
  -1   0  11    0.36    0.12
   0   0 -11    1.81    0.17
   0   0  11    2.02    0.18
  -1   0 -11   -0.04    0.08
   1   0  11    0.01    0.09
  -2   0 -11    0.91    0.13
   2   0  11    0.79    0.14
  -3   0 -11   -0.06    0.09
   3   0  11    0.16    0.11
  -4   0 -11    0.73    0.13
   4   0  11    0.72    0.15
   5   0  11    0.75    0.15
   7  -1 -11    1.32    0.18
   7  -1 -11    1.47    0.19
  -7   1  11    1.22    0.22
   6  -1 -11    1.55    0.16
   6  -1 -11    1.45    0.16
  -6   1  11    1.26    0.18
   5  -1 -11    0.51    0.11
   5  -1 -11    0.39    0.10
  -5   1  11    0.50    0.14
   4  -1 -11    1.33    0.14
   4  -1 -11    1.32    0.14
  -4   1  11    1.64    0.18
   3  -1 -11    0.22    0.09
   3  -1 -11    0.09    0.08
  -3   1  11    0.27    0.11
   2  -1 -11   10.42    0.30
   2  -1 -11   10.29    0.30
  -2   1  11   10.68    0.35
   1  -1 -11    0.13    0.08
   1  -1 -11    0.14    0.08
  -1   1  11    0.04    0.09
  -1   1  11    0.15    0.09
   0   1  11    3.34    0.20
   0   1  11    3.18    0.21
  -1  -1 -11   -0.02    0.08
   1   1  11   -0.08    0.08
  -2  -1 -11    6.39    0.25
   2   1  11    6.15    0.28
  -3  -1 -11   -0.06    0.08
   3   1  11    0.09    0.10
  -4  -1 -11    0.05    0.09
   4   1  11   -0.11    0.09
   5   1  11    0.90    0.14
   5   1  11    0.94    0.16
  -6  -1 -11    0.12    0.11
   6   1  11    0.23    0.11
   6  -2 -11    1.62    0.17
   6  -2 -11    1.89    0.18
  -6   2  11    2.25    0.22
   5  -2 -11    0.39    0.11
   5  -2 -11    0.43    0.11
  -5   2  11    0.47    0.13
   4  -2 -11    1.14    0.13
   4  -2 -11    0.73    0.12
  -4   2  11    1.13    0.17
   3  -2 -11    7.31    0.27
   3  -2 -11    6.54    0.26
  -3   2  11    6.66    0.29
   2  -2 -11    0.00    0.07
   2  -2 -11    0.13    0.08
  -2   2  11    0.00    0.09
   1  -2 -11    3.66    0.19
   1  -2 -11    3.72    0.19
  -1   2  11    3.77    0.22
   0  -2 -11    6.95    0.23
   0  -2 -11    7.18    0.24
   0   2  11    6.72    0.25
   0   2  11    7.33    0.27
   1   2  11    0.09    0.08
   1   2  11    0.21    0.10
  -2  -2 -11    1.63    0.15
   2   2  11    1.57    0.15
  -3  -2 -11    6.63    0.25
   3   2  11    7.16    0.26
   3   2  11    6.68    0.28
   4   2  11    0.35    0.12
   4   2  11    0.52    0.11
  -5  -2 -11    0.03    0.10
   5   2  11    0.10    0.09
  -6  -2 -11    0.23    0.12
   6   2  11    0.40    0.12
   6  -3 -11   -0.10    0.09
   6  -3 -11   -0.10    0.09
  -6   3  11   -0.06    0.10
   5  -3 -11    0.71    0.13
   5  -3 -11    0.69    0.13
  -5   3  11    0.69    0.14
   4  -3 -11    0.27    0.10
   4  -3 -11    0.23    0.09
  -4   3  11    0.29    0.11
   3  -3 -11    0.12    0.09
   3  -3 -11    0.22    0.09
  -3   3  11    0.27    0.11
   2  -3 -11    0.27    0.09
   2  -3 -11    0.41    0.10
  -2   3  11    0.29    0.11
   1  -3 -11    0.00    0.07
   1  -3 -11    0.13    0.07
  -1   3  11   -0.12    0.08
   0  -3 -11   -0.02    0.06
   0  -3 -11   -0.04    0.07
   0   3  11   -0.02    0.08
  -1  -3 -11    4.93    0.20
  -1  -3 -11    4.69    0.19
   1   3  11    4.90    0.22
   1   3  11    4.95    0.22
  -2  -3 -11    1.62    0.14
   2   3  11    1.56    0.14
   2   3  11    1.58    0.15
   3   3  11    0.51    0.11
   3   3  11    0.50    0.10
  -4  -3 -11    0.69    0.12
   4   3  11    0.37    0.10
  -5  -3 -11    2.81    0.21
   5   3  11    2.51    0.20
  -6  -3 -11    1.25    0.16
   6   3  11    1.24    0.16
  -7  -3 -11   -0.03    0.11
   7   3  11   -0.01    0.09
   6  -4 -11    0.49    0.13
   6  -4 -11    0.36    0.12
  -6   4  11    0.35    0.13
   5  -4 -11    0.62    0.12
   5  -4 -11    0.91    0.14
  -5   4  11    0.77    0.15
   4  -4 -11    0.38    0.11
   4  -4 -11    0.62    0.12
  -4   4  11    0.47    0.13
   3  -4 -11    1.16    0.14
   3  -4 -11    1.09    0.13
  -3   4  11    1.50    0.17
   2  -4 -11    0.53    0.10
   2  -4 -11    0.59    0.11
  -2   4  11    0.55    0.11
   1  -4 -11    0.84    0.11
  -1   4  11    0.87    0.13
   0  -4 -11    1.48    0.13
   0  -4 -11    1.42    0.13
   0   4  11    1.47    0.15
  -1  -4 -11    0.27    0.08
  -1  -4 -11    0.31    0.08
   1   4  11    0.51    0.10
  -2  -4 -11    0.48    0.09
  -2  -4 -11    0.68    0.10
   2   4  11    0.66    0.11
  -3  -4 -11    4.30    0.21
   3   4  11    4.54    0.22
  -4  -4 -11    0.35    0.10
   4   4  11    0.37    0.11
  -5  -4 -11    0.12    0.10
   5   4  11    0.07    0.08
  -6  -4 -11   -0.11    0.09
   6   4  11   -0.03    0.09
  -7  -4 -11    0.87    0.15
   7   4  11    0.94    0.15
   5  -5 -11    0.05    0.09
   5  -5 -11    0.12    0.10
  -5   5  11    0.11    0.11
   4  -5 -11    0.02    0.09
   4  -5 -11    0.06    0.09
  -4   5  11    0.01    0.09
   3  -5 -11    0.96    0.13
   3  -5 -11    0.85    0.13
  -3   5  11    0.94    0.14
   2  -5 -11    1.70    0.15
  -2   5  11    1.76    0.16
   1  -5 -11    0.52    0.10
   1  -5 -11    0.47    0.10
  -1   5  11    0.77    0.12
   0  -5 -11    0.87    0.12
   0  -5 -11    0.60    0.10
   0   5  11    0.74    0.11
  -1  -5 -11    3.50    0.19
  -1  -5 -11    4.08    0.20
  -2  -5 -11    0.03    0.08
  -2  -5 -11    0.04    0.07
  -3  -5 -11    0.14    0.08
  -3  -5 -11    0.13    0.07
   3   5  11    0.22    0.10
  -4  -5 -11    1.51    0.14
   4   5  11    1.44    0.15
  -5  -5 -11    1.00    0.13
   5   5  11    0.77    0.14
  -6  -5 -11    0.96    0.14
   6   5  11    0.69    0.14
  -7  -5 -11   -0.23    0.08
   7   5  11   -0.04    0.10
   5  -6 -11    0.05    0.10
   5  -6 -11   -0.19    0.09
  -5   6  11    0.00    0.09
   4  -6 -11    0.02    0.09
   4  -6 -11    0.02    0.08
  -4   6  11    0.03    0.09
   3  -6 -11    0.07    0.13
   3  -6 -11   -0.06    0.08
  -3   6  11    0.09    0.09
   2  -6 -11    0.28    0.10
   2  -6 -11    0.30    0.10
  -2   6  11    0.31    0.10
   1  -6 -11    2.87    0.20
   1  -6 -11    3.73    0.22
  -1   6  11    3.05    0.19
   0  -6 -11    0.49    0.11
   0  -6 -11    0.46    0.10
  -1  -6 -11    0.57    0.10
  -1  -6 -11    0.60    0.11
  -2  -6 -11   -0.07    0.08
  -2  -6 -11    0.01    0.07
  -3  -6 -11    1.25    0.14
   3   6  11    1.10    0.14
  -4  -6 -11    0.05    0.08
   4   6  11    0.04    0.09
  -5  -6 -11    0.34    0.10
   5   6  11    0.31    0.11
  -6  -6 -11    0.27    0.11
   6   6  11    0.20    0.11
  -7  -6 -11    0.28    0.12
   7   6  11    0.24    0.12
  -8  -6 -11    4.30    0.26
   8   6  11    3.30    0.33
   4  -7 -11    0.05    0.13
   4  -7 -11    0.11    0.10
   4  -7 -11    0.03    0.09
  -4   7  11   -0.04    0.10
   3  -7 -11   -0.04    0.10
   3  -7 -11    0.10    0.09
  -3   7  11    0.00    0.08
   2  -7 -11    0.19    0.09
   2  -7 -11    0.06    0.10
  -2   7  11    0.10    0.09
   1  -7 -11    0.05    0.08
   1  -7 -11   -0.07    0.09
   0  -7 -11   -0.14    0.09
   0  -7 -11   -0.06    0.08
  -1  -7 -11    4.91    0.25
  -1  -7 -11    4.41    0.24
  -2  -7 -11    0.15    0.09
  -3  -7 -11    0.04    0.09
  -4  -7 -11    2.30    0.19
   4   7  11    1.90    0.18
  -5  -7 -11    0.10    0.09
   5   7  11   -0.03    0.09
  -6  -7 -11   -0.02    0.09
   6   7  11   -0.13    0.09
  -7  -7 -11    0.20    0.12
   7   7  11    0.00    0.11
  -8  -7 -11    0.65    0.14
   3  -8 -11    0.09    0.10
   3  -8 -11   -0.17    0.11
  -3   8  11    0.06    0.10
   2  -8 -11   -0.04    0.08
   2  -8 -11    0.20    0.12
   1  -8 -11    0.21    0.12
   1  -8 -11    0.22    0.09
   0  -8 -11    0.23    0.09
   0  -8 -11   -0.06    0.10
  -1  -8 -11    0.16    0.11
  -1  -8 -11   -8.91    5.75
  -2  -8 -11    6.01    0.28
  -3  -8 -11    0.28    0.11
  -4  -8 -11    0.31    0.12
  -5  -8 -11    0.58    0.13
   5   8  11    0.50    0.13
  -6  -8 -11    2.82    0.26
   6   8  11    2.98    0.24
  -7  -8 -11    0.02    0.10
   7   8  11    0.04    0.11
   2  -9 -11    0.06    0.09
   2  -9 -11   -0.14    0.11
   1  -9 -11   -0.19    0.10
   1  -9 -11    0.07    0.09
   0  -9 -11    0.15    0.09
   0  -9 -11    0.17    0.12
  -1  -9 -11   -0.02    0.11
  -2  -9 -11    0.19    0.12
  -3  -9 -11    0.08    0.12
  -4  -9 -11    3.55    0.25
  -5  -9 -11    0.40    0.13
  -6  -9 -11    1.05    0.16
   7   9  11    0.13    0.14
   0 -10 -11    0.21    0.09
   0 -10 -11    0.00    0.13
  -1 -10 -11    0.12    0.12
  -2 -10 -11    0.15    0.12
  -3 -10 -11    0.21    0.12
  -4 -10 -11   -0.10    0.11
  -5 -10 -11    0.09    0.13
  -6 -10 -11    0.72    0.18
   3   2 -12    0.39    0.12
  -3  -2  12    0.33    0.12
   2   2 -12    0.20    0.12
  -2  -2  12    0.26    0.12
   1   2 -12    0.03    0.11
  -1  -2  12    0.16    0.12
   0   2 -12    0.27    0.13
   0  -2  12    0.47    0.14
   5   1 -12    0.09    0.10
   5   1 -12   -0.09    0.09
  -5  -1  12    0.35    0.21
   4   1 -12    0.16    0.10
   4   1 -12    0.20    0.10
  -4  -1  12    0.11    0.12
   3   1 -12    0.93    0.19
   3   1 -12    0.56    0.17
  -3  -1  12    0.70    0.15
   2   1 -12    0.15    0.10
  -2  -1  12    0.08    0.12
  -2  -1  12    0.12    0.10
   1   1 -12    0.04    0.10
  -1  -1  12   -0.12    0.09
   0   1 -12    0.53    0.13
   0  -1  12    0.39    0.12
  -1   1 -12   -0.08    0.10
   1  -1  12    0.03    0.10
  -2   1 -12    0.11    0.11
   2  -1  12   -0.05    0.10
   5   0 -12    2.15    0.18
   5   0 -12    2.45    0.19
  -5   0  12    2.26    0.23
   4   0 -12    0.03    0.09
   4   0 -12    0.06    0.09
  -4   0  12   -0.08    0.11
   3   0 -12    0.01    0.08
   3   0 -12    0.22    0.09
  -3   0  12    0.25    0.13
   2   0 -12    0.61    0.17
   2   0 -12    0.41    0.16
  -2   0  12    0.34    0.13
   1   0 -12    0.07    0.09
  -1   0  12    0.15    0.09
  -1   0  12   -0.16    0.10
   0   0 -12    0.01    0.10
   0   0  12   -0.04    0.08
  -1   0 -12    0.58    0.13
   1   0  12    0.39    0.12
  -2   0 -12    0.15    0.11
   2   0  12    0.13    0.11
  -3   0 -12   -0.03    0.09
   3   0  12    0.07    0.11
   5  -1 -12    0.06    0.10
   5  -1 -12    0.44    0.12
  -5   1  12    0.24    0.13
   4  -1 -12    0.59    0.12
   4  -1 -12    0.57    0.12
  -4   1  12    0.53    0.14
   3  -1 -12    0.30    0.10
   3  -1 -12    0.30    0.10
  -3   1  12    0.36    0.12
   2  -1 -12    1.31    0.13
   2  -1 -12    1.26    0.13
  -2   1  12    1.16    0.16
  -1   1  12    0.25    0.11
   0  -1 -12    0.45    0.11
   0   1  12    0.33    0.11
  -1  -1 -12   -0.01    0.09
   1   1  12   -0.09    0.08
  -2  -1 -12    1.24    0.15
   2   1  12    1.19    0.16
  -3  -1 -12    0.50    0.12
   3   1  12    0.42    0.13
   4   1  12    0.01    0.11
   5  -2 -12    0.20    0.10
   5  -2 -12    0.01    0.09
  -5   2  12   -0.02    0.11
   4  -2 -12    3.03    0.22
   4  -2 -12    2.39    0.19
  -4   2  12    2.61    0.23
   3  -2 -12    0.23    0.09
   3  -2 -12    0.15    0.09
  -3   2  12   -0.05    0.09
   2  -2 -12    5.36    0.24
   2  -2 -12    5.35    0.24
  -2   2  12    5.05    0.26
   1  -2 -12    5.29    0.23
   1  -2 -12    4.71    0.22
  -1   2  12    5.00    0.27
   0   2  12    2.40    0.19
  -1  -2 -12    0.53    0.11
   1   2  12    0.31    0.10
  -2  -2 -12    0.30    0.10
   2   2  12    0.35    0.11
   3   2  12    0.73    0.13
   4   2  12    0.04    0.10
  -5  -2 -12    0.20    0.12
   5  -3 -12    0.37    0.12
   5  -3 -12    0.49    0.12
  -5   3  12    0.25    0.13
   4  -3 -12    0.01    0.10
   4  -3 -12   -0.02    0.09
  -4   3  12   -0.01    0.10
   3  -3 -12    0.15    0.09
   3  -3 -12   -0.07    0.08
  -3   3  12    0.05    0.09
   2  -3 -12    2.16    0.17
   2  -3 -12    1.85    0.16
  -2   3  12    2.75    0.21
   1  -3 -12    5.54    0.24
   1  -3 -12    5.21    0.23
  -1   3  12    4.92    0.25
   0  -3 -12    0.44    0.10
   0  -3 -12    0.63    0.10
   0   3  12    0.53    0.12
   1   3  12    1.23    0.14
   2   3  12    2.36    0.19
   3   3  12    0.28    0.11
  -4  -3 -12    0.27    0.11
   4   3  12    0.52    0.12
  -5  -3 -12    0.96    0.15
   5   3  12    1.05    0.15
  -6  -3 -12   -0.12    0.09
   6   3  12    0.01    0.10
   5  -4 -12    0.35    0.12
   5  -4 -12    0.40    0.12
  -5   4  12    0.44    0.14
   4  -4 -12    0.44    0.12
   4  -4 -12    0.27    0.11
  -4   4  12    0.48    0.13
   3  -4 -12    0.06    0.09
   3  -4 -12    0.00    0.09
  -3   4  12    0.23    0.11
   2  -4 -12   -0.10    0.07
   2  -4 -12   -0.05    0.08
  -2   4  12    0.19    0.10
   1  -4 -12   -0.07    0.07
   1  -4 -12    0.06    0.08
  -1   4  12   -0.11    0.08
   0  -4 -12    1.27    0.13
   0  -4 -12    1.18    0.13
   0   4  12    1.33    0.15
  -1  -4 -12    0.34    0.09
   1   4  12    0.28    0.11
   2   4  12    0.91    0.13
  -3  -4 -12    0.32    0.10
   3   4  12    0.26    0.09
  -4  -4 -12    0.25    0.10
   4   4  12    0.18    0.10
  -5  -4 -12    0.08    0.11
   5   4  12    0.09    0.10
  -6  -4 -12    0.03    0.11
   6   4  12   -0.06    0.09
   4  -5 -12    0.52    0.12
   4  -5 -12    0.71    0.13
  -4   5  12    0.40    0.13
   3  -5 -12    0.97    0.14
   3  -5 -12    0.87    0.13
  -3   5  12    0.92    0.15
   2  -5 -12    1.64    0.16
   2  -5 -12    1.40    0.15
  -2   5  12    1.50    0.17
   1  -5 -12    2.44    0.19
  -1   5  12    2.94    0.21
   0  -5 -12   -0.13    0.07
   0   5  12    0.09    0.09
  -1  -5 -12    2.72    0.19
  -1  -5 -12    3.12    0.19
  -2  -5 -12    0.03    0.08
  -2  -5 -12    0.10    0.08
   3   5  12    1.87    0.17
  -4  -5 -12    0.13    0.10
   4   5  12    0.20    0.10
  -5  -5 -12    0.57    0.13
   5   5  12    0.40    0.12
  -6  -5 -12    0.47    0.13
   6   5  12    0.58    0.13
   4  -6 -12    0.81    0.14
   4  -6 -12    0.66    0.14
  -4   6  12    0.63    0.15
   3  -6 -12    0.04    0.09
   3  -6 -12    0.13    0.10
  -3   6  12    0.04    0.09
   2  -6 -12    1.05    0.14
  -2   6  12    1.15    0.15
   1  -6 -12    0.16    0.09
   1  -6 -12    0.17    0.10
  -1   6  12    0.06    0.09
   0  -6 -12    1.91    0.17
   0  -6 -12    2.09    0.17
  -1  -6 -12   -0.07    0.08
  -1  -6 -12    0.08    0.08
  -2  -6 -12    1.70    0.16
  -2  -6 -12    1.65    0.15
  -3  -6 -12    0.15    0.09
  -3  -6 -12    0.05    0.08
   4   6  12    2.76    0.22
  -5  -6 -12   -0.09    0.09
   5   6  12   -0.02    0.09
  -6  -6 -12    0.47    0.13
   6   6  12    0.38    0.13
   3  -7 -12   -0.02    0.09
   3  -7 -12    0.09    0.10
  -3   7  12    0.15    0.10
   2  -7 -12    0.02    0.08
   2  -7 -12    0.02    0.11
  -2   7  12    0.19    0.16
   1  -7 -12    4.45    0.25
   1  -7 -12    4.38    0.25
   0  -7 -12    0.09    0.09
   0  -7 -12    0.21    0.11
  -1  -7 -12    1.58    0.17
  -1  -7 -12    1.24    0.14
  -2  -7 -12    1.63    0.17
  -2  -7 -12    1.78    0.16
  -3  -7 -12    0.62    0.11
  -3  -7 -12    0.79    0.14
  -4  -7 -12    0.08    0.10
   5   7  12    0.42    0.13
  -6  -7 -12   -0.09    0.09
   6   7  12   -0.14    0.10
   2  -8 -12   -0.06    0.12
   2  -8 -12    0.03    0.09
   1  -8 -12    0.20    0.09
   1  -8 -12    0.17    0.12
   0  -8 -12    0.51    0.13
   0  -8 -12    0.71    0.13
  -1  -8 -12   -0.03    0.10
  -1  -8 -12    0.07    0.08
  -2  -8 -12    1.65    0.16
  -2  -8 -12    1.56    0.18
  -3  -8 -12    2.46    0.21
  -4  -8 -12    1.12    0.16
  -5  -8 -12    1.29    0.17
   6   8  12    0.60    0.14
   0  -9 -12    0.35    0.10
   0  -9 -12    0.04    0.12
  -1  -9 -12    0.18    0.09
  -1  -9 -12   -0.13    0.10
  -2  -9 -12   -0.01    0.11
  -3  -9 -12    0.54    0.15
  -4  -9 -12    5.38    0.29
  -5  -9 -12    0.25    0.13
  -2 -10 -12   -0.04    0.12
  -3 -10 -12   -0.13    0.13
   3   0 -13    0.08    0.12
   3   0 -13    0.15    0.12
  -3   0  13    0.25    0.14
  -2   0  13   -0.08    0.11
   1   0 -13    2.12    0.20
  -1   0  13    2.30    0.30
   0   0 -13   -0.02    0.10
   0   0  13    0.05    0.10
  -1   0 -13    1.40    0.17
   1   0  13    1.45    0.18
   4  -1 -13    0.05    0.10
   4  -1 -13   -0.11    0.09
   3  -1 -13   -0.08    0.08
   3  -1 -13   -0.01    0.09
  -3   1  13    0.05    0.11
   2  -1 -13    0.01    0.10
   2  -1 -13    0.08    0.11
  -2   1  13    0.08    0.11
  -1   1  13    0.04    0.11
   0  -1 -13    0.40    0.12
   0   1  13    0.23    0.13
  -1  -1 -13    0.11    0.10
   1   1  13    0.24    0.11
  -2  -1 -13    0.08    0.10
   2   1  13   -0.18    0.10
   4  -2 -13    0.02    0.10
   4  -2 -13    0.16    0.10
  -4   2  13   -0.04    0.11
   3  -2 -13    1.30    0.15
   3  -2 -13    1.43    0.16
  -3   2  13    1.39    0.18
   2  -2 -13    0.01    0.08
   2  -2 -13   -0.04    0.08
  -2   2  13    0.10    0.11
   1  -2 -13    0.27    0.13
   1  -2 -13    0.26    0.12
  -1   2  13    0.21    0.11
   0   2  13    1.24    0.16
  -1  -2 -13    0.77    0.13
   1   2  13    0.98    0.17
  -2  -2 -13   -0.01    0.10
   2   2  13   -0.05    0.09
   3   2  13    0.25    0.12
   4  -3 -13    0.42    0.12
   4  -3 -13    0.42    0.12
  -4   3  13    0.50    0.14
   3  -3 -13    1.47    0.16
   3  -3 -13    1.28    0.15
  -3   3  13    1.88    0.21
   2  -3 -13    0.09    0.10
   2  -3 -13    0.12    0.10
  -2   3  13    0.00    0.10
   1  -3 -13   -0.04    0.07
   1  -3 -13    0.02    0.08
  -1   3  13    0.06    0.10
   0   3  13    2.50    0.21
  -1  -3 -13    0.39    0.11
   2   3  13    0.27    0.14
   3   3  13    0.05    0.10
  -4  -3 -13    0.47    0.13
   4  -4 -13    0.13    0.13
   4  -4 -13    0.11    0.13
   3  -4 -13    1.14    0.15
   3  -4 -13    1.03    0.14
  -3   4  13    1.25    0.17
   2  -4 -13    1.84    0.17
   2  -4 -13    1.54    0.16
  -2   4  13    2.02    0.20
   1  -4 -13    1.07    0.14
   1  -4 -13    1.48    0.15
  -1   4  13    1.16    0.16
   0  -4 -13    0.35    0.10
   0  -4 -13    0.32    0.10
   0   4  13    0.35    0.11
  -4  -4 -13    0.33    0.12
  -5  -4 -13    1.60    0.18
   5   4  13    1.80    0.20
   3  -5 -13   -0.17    0.08
   3  -5 -13    0.04    0.10
  -3   5  13    0.02    0.10
   2  -5 -13    0.36    0.11
   2  -5 -13    0.40    0.11
  -2   5  13    0.43    0.12
   1  -5 -13    3.09    0.21
   1  -5 -13    2.66    0.21
  -1   5  13    2.58    0.21
   0  -5 -13    0.19    0.09
   0  -5 -13    0.22    0.09
  -1  -5 -13    3.40    0.22
   3   5  13    0.03    0.09
   4   5  13    0.22    0.11
  -5  -5 -13   -0.11    0.09
   5   5  13    0.14    0.11
   2  -6 -13   -0.03    0.08
   2  -6 -13    0.12    0.10
  -2   6  13    0.15    0.11
   1  -6 -13    0.11    0.10
   0  -6 -13    0.54    0.11
  -1  -6 -13    0.35    0.13
  -1  -6 -13    0.35    0.11
  -2  -6 -13    0.18    0.09
  -2  -6 -13    0.08    0.10
  -3  -6 -13    1.49    0.17
   4   6  13    0.23    0.11
   5   6  13    0.19    0.12
   1  -7 -13    0.36    0.12
   0  -7 -13    0.38    0.13
   0  -7 -13    0.52    0.12
  -1  -7 -13    0.06    0.09
  -1  -7 -13   -0.08    0.10
  -2  -7 -13    0.18    0.09
  -2  -7 -13    0.40    0.13
  -3  -7 -13    0.54    0.14
  -3  -7 -13    0.67    0.12
  -4  -7 -13    0.50    0.13
   5   7  13    0.02    0.11
   0  -8 -13    0.80    0.15
   0  -8 -13    0.94    0.15
  -1  -8 -13   -0.02    0.11
  -1  -8 -13    0.09    0.09
  -2  -8 -13    0.54    0.12
  -2  -8 -13    0.78    0.15
  -3  -8 -13    0.03    0.10
  -3  -8 -13    0.14    0.09
  -4  -8 -13    0.28    0.09
  -4  -8 -13    0.43    0.13
   1  -3 -14    1.38    0.21
   1  -3 -14    1.27    0.20
  -1   3  14    0.74    0.15
   0   3  14    1.62    0.19
   1  -4 -14    1.26    0.15
   1  -4 -14    1.34    0.15
  -1   4  14    1.19    0.17
   1  -5 -14    0.29    0.11
   1  -5 -14    0.39    0.11
   0  -5 -14    1.08    0.14
   0  -5 -14    0.98    0.14
   0  -6 -14    0.60    0.13
  -1  -6 -14    0.72    0.13
   0   0   0    0.00    0.00
;
_shelx_hkl_checksum   76855

